VERS 00000001 4
HEAD 00001205 <?xml version="1.0"?>
<?xml-stylesheet type="text/xsl" href="/resources/transform.xslt"?><header><componentName>correlator</componentName><version>9.10.0.0.275046</version><build>rel/9.10.0.x@275046</build><buildPlatform>amd64-win</buildPlatform><platform>Windows 7 (Service Pack 1)</platform><cputype>GenuineIntel family 6 model 12 stepping 3 Intel(R) Core(TM) i7-4790S CPU @ 3.20GHz</cputype><cpus>8</cpus><javaEnabled>true</javaEnabled><replayLogMode>inputLog</replayLogMode><args><arg>C:\SoftwareAG\Apama\bin\correlator.exe</arg><arg>--port</arg><arg>15903</arg><arg>--loglevel</arg><arg>INFO</arg><arg>--name</arg><arg>Apama Designer Correlator for task1(task1:defaultCorrelator)</arg><arg>-j</arg><arg>--inputLog</arg><arg>logs/defaultCorrelator_${START_TIME}_${ID}.input.log</arg></args><environment><variable>ALLUSERSPROFILE=C:\ProgramData</variable><variable>APAMA_HOME=C:\SoftwareAG\Apama</variable><variable>APAMA_WORK=C:\Users\Public\SoftwareAG\ApamaWork_9.10</variable><variable>APPDATA=C:\Users\istmapara\AppData\Roaming</variable><variable>COMMONPROGRAMFILES=C:\Program Files\Common Files</variable><variable>COMMONPROGRAMFILES(X86)=C:\Program Files (x86)\Common Files</variable><variable>COMMONPROGRAMW6432=C:\Program Files\Common Files</variable><variable>COMPUTERNAME=WIDB-2014-6</variable><variable>COMSPEC=C:\Windows\system32\cmd.exe</variable><variable>FP_NO_HOST_CHECK=NO</variable><variable>HDGUARD=C:\Program Files (x86)\RDT Global\HDGUARD\</variable><variable>HOMEDRIVE=Z:</variable><variable>HOMEPATH=\</variable><variable>HOMESHARE=\\userv-fs\istmapara</variable><variable>LOCALAPPDATA=C:\Users\istmapara\AppData\Local</variable><variable>LOGONSERVER=\\SAMBABDC</variable><variable>NUMBER_OF_PROCESSORS=8</variable><variable>OS=Windows_NT</variable><variable>PATH=C:\SoftwareAG\Apama\..\jvm\jvm\jre\bin\server;C:\SoftwareAG\Apama\..\jvm\jvm\jre\bin;C:\SoftwareAG\Apama\..\jvm\jvm\jre\bin\server;C:\SoftwareAG\Apama\..\jvm\jvm\jre\bin;C:\Users\Public\SoftwareAG\ApamaWork_9.10\lib;C:\SoftwareAG\Apama\bin;C:\oraclexe\app\oracle\product\11.2.0\server\bin;C:\ProgramData\Oracle\Java\javapath;C:\Program Files (x86)\Intel\iCLS Client\;C:\Program Files\Intel\iCLS Client\;C:\Windows\system32;C:\Windows;C:\Windows\System32\Wbem;C:\Windows\System32\WindowsPowerShell\v1.0\;C:\Program Files\Intel\Intel(R) Management Engine Components\DAL;C:\Program Files\Intel\Intel(R) Management Engine Components\IPT;C:\Program Files (x86)\Intel\Intel(R) Management Engine Components\DAL;C:\Program Files (x86)\Intel\Intel(R) Management Engine Components\IPT;C:\Program Files (x86)\Windows Kits\8.1\Windows Performance Toolkit\;C:\Program Files\Microsoft SQL Server\110\Tools\Binn\;C:\Program Files (x86)\Microsoft SQL Server\100\Tools\Binn\;C:\Program Files\Microsoft SQL Server\100\Tools\Binn\;C:\Program Files\Microsoft SQL Server\100\DTS\Binn\;C:\Program Files (x86)\Microsoft SQL Server\100\Tools\Binn\VSShell\Common7\IDE\;C:\Program Files (x86)\Microsoft SQL Server\100\DTS\Binn\;C:\Program Files\Java\jdk1.6.0_21\bin;C:\Program Files\Git\cmd;C:\Program Files\TortoiseGit\bin</variable><variable>PATHEXT=.COM;.EXE;.BAT;.CMD;.VBS;.VBE;.JS;.JSE;.WSF;.WSH;.MSC</variable><variable>PENTAHO_JAVA_HOME=C:\PENTAHO\jdk1.6.0_21</variable><variable>PROCESSOR_ARCHITECTURE=AMD64</variable><variable>PROCESSOR_IDENTIFIER=Intel64 Family 6 Model 60 Stepping 3, GenuineIntel</variable><variable>PROCESSOR_LEVEL=6</variable><variable>PROCESSOR_REVISION=3c03</variable><variable>PROGRAMDATA=C:\ProgramData</variable><variable>PROGRAMFILES=C:\Program Files</variable><variable>PROGRAMFILES(X86)=C:\Program Files (x86)</variable><variable>PROGRAMW6432=C:\Program Files</variable><variable>PROMPT=$P$G</variable><variable>PSMODULEPATH=C:\Windows\system32\WindowsPowerShell\v1.0\Modules\</variable><variable>PUBLIC=C:\Users\Public</variable><variable>SESSIONNAME=Console</variable><variable>SYSTEMDRIVE=C:</variable><variable>SYSTEMROOT=C:\Windows</variable><variable>TEMP=C:\Users\ISTMAP~2\AppData\Local\Temp</variable><variable>TMP=C:\Users\ISTMAP~2\AppData\Local\Temp</variable><variable>USERDOMAIN=FBI-USERV</variable><variable>USERNAME=istmapara</variable><variable>USERPROFILE=C:\Users\istmapara</variable><variable>VBOX_MSI_INSTALL_PATH=C:\Program Files\Oracle\VirtualBox\</variable><variable>VS120COMNTOOLS=C:\Program Files (x86)\Microsoft Visual Studio 12.0\Common7\Tools\</variable><variable>WINDIR=C:\Windows</variable><variable>WINDOWS_TRACING_FLAGS=3</variable><variable>WINDOWS_TRACING_LOGFILE=C:\BVTBin\Tests\installpackage\csilogfile.log</variable></environment><version>9.10.0.0.275046</version></header>
RAND 0000000a 2466651966
TIME 00000010 1484230369.231,1
CONN 0000003e 10592948570232793350:10594191361971005702 from 127.0.0.1:52426
TIME 0000000e 1484230369.6,1
MONF 0000022b /*
	$Copyright(c) 2011 Progress Software Corporation (PSC). All rights reserved.$ 
	$Copyright (c) 2013-2014 Software AG, Darmstadt, Germany and/or Software AG USA Inc., Reston, VA, USA, and/or its subsidiaries and/or its affiliates and/or their licensors.$ 
	Use, reproduction, transfer, publication or disclosure is prohibited except as specifically provided for in your License Agreement with Software AG 
*/

package com.apama.correlator;

/** For internal use only. 

@private*/
event ManagementAck {
	string response;
	integer uid;
}
 0000002f C:\SoftwareAG\Apama\monitors\ManagementImpl.mon
MONF 0000456e /*
	$Copyright(c) 2011-2013 Progress Software Corporation (PSC). All rights reserved.$ 
	$Copyright (c) 2013-2016 Software AG, Darmstadt, Germany and/or Software AG USA Inc., Reston, VA, USA, and/or its subsidiaries and/or its affiliates and/or their licensors.$ 
	Use, reproduction, transfer, publication or disclosure is prohibited except as specifically provided for in your License Agreement with Software AG 
	
	Requires ManagementImpl.mon
*/

package com.apama.correlator;

/**
 * EPL representation of the correlator status.
 */
event EngineStatus {
	/** 
	* @private
	*
	* Identifer prepended to user status keys to differentiate from standard keys.
	*/
	constant string userPrefix := "user-";

	/** @private*/
	dictionary<string,string> values;

	/**
	 * Get the time in ms that the Engine has been running for.
	 *
	 * @return The uptime of the Engine.
	 */
	action getUptime() returns integer {
		return values["uptime"].toInteger();
	}

	/**
	 * Get the number of contexts active in the Engine.
	 *
	 * @return The number of contexts active.
	 */
	action getNumContexts() returns integer {
		return values["numContexts"].toInteger();
	}

	/**
	 * Get the number of monitors defined in the Engine.
	 *
	 * @return The number of monitors defined.
	 */
	action getNumMonitors() returns integer {
		return values["numMonitors"].toInteger();
	}
	
	/**
	 * Get the number of monitor processes or active
	 * sub-monitors. If a monitor spawns it creates a new
	 * process.
	 *
	 * @return The number of monitor processes.
	 */
	action getNumProcesses() returns integer {
		return values["numProcesses"].toInteger();
	}
	
	/**
	 * Get the number of Java (JMon) Applications defined in the Engine.
	 *
	 * @return The number of Java Applications.
	 */
	action getNumJavaApplications() returns integer {
		return values["numJavaApplications"].toInteger();
	}
	
	/**
	 * Get the number of active listeners.
	 *
	 * @return The number of active listeners.
	 */
	action getNumListeners() returns integer {
		return values["numListeners"].toInteger();
	}
	
	/**
	 * Get the number of event types defined.
	 *
	 * @return The number of event types.
	 */
	action getNumEventTypes() returns integer {
		return values["numEventTypes"].toInteger();
	}
	
	/**
	 * Get the total number of events waiting on the route queues (value of
	 * 'rq' in the correlator status line).
	 *
	 * @return The number of waiting events.
	 */
	action getNumQueuedFastTrack() returns integer {
		return values["numQueuedFastTrack"].toInteger();
	}
	
	/**
	 * Get the total number of events waiting on the input queues (value of
	 * 'iq' in the correlator status line).
	 *
	 * @return The number of waiting events.
	 */
	action getNumQueuedInput() returns integer {
		return values["numQueuedInput"].toInteger();
	}
	
	/**
	 * Get the number of events received since the Engine started.
	 *
	 * @return The number of events received.
	 */
	action getNumReceived() returns integer {
		return values["numReceived"].toInteger();
	}
	
	/**
	 * Get the number of events received on the internal input
	 * queue since the Engine started.
	 *
	 * @return The number of events received.
	 */
	action getNumFastTracked() returns integer {
		return values["numFastTracked"].toInteger();
	}
	
	/**
	 * Get the number of event consumers connected to the
	 * engine.
	 *
	 * @return The number of event consumers.
	 */
	action getNumConsumers() returns integer {
		return values["numConsumers"].toInteger();
	}
	
	/**
	 * Get the number of events waiting on the output queue.
	 *
	 * @return The number of events waiting.
	 */
	action getNumOutEventsQueued() returns integer {
		return values["numOutEventsQueued"].toInteger();
	}

	/**
	 * Gets the number of output events which have been
	 * put onto the output queue. This corresponds to the
	 * number of MonitorScript emit commands executed.
	 *
	 * @return The number of events emitted.
	 */
	action getNumOutEventsCreated() returns integer {
		return values["numEmits"].toInteger();
	}
	
	/**
	 * This is the number of output events sent out by the
	 * correlator process. This differs from getNumOutEventsCreated
	 * since events can be of interest to a varying number of
	 * consumers, and can be dropped by the output queue.
	 *
	 * @return The number of events sent.
	 */
	action getNumOutEventsSent() returns integer {
		return values["numOutEventsSent"].toInteger();
	}
	
	/**
	 * Get the queue size of the most backed up context.
	 *
	 * @return The number of events queued.
	 */
	action getMostBackedUpQueueSize() returns integer {
		return values["mostBackedUpICQueueSize"].toInteger();
	}
	
	/**
	 * Get the number of active sub-listeners.
	 *
	 * @return The number of sub-listeners.
	 */
	action getNumSubListeners() returns integer {
		return values["numSubListeners"].toInteger();
	}
	
	/**
	 * Get the number of events taken off the input queue and processed 
	 * since the Engine started.
	 *
	 * @return The number of events processed.
	 */
	action getNumProcessed() returns integer {
		return values["numProcessed"].toInteger();
	}

	/**
	 * Get the name of the most backed up context.
	 *
	 * @return Name of the slowest context.
	 */
	action getMostBackedUpInput() returns string {
		return values["mostBackedUpInputContext"];
	}

	/**
	 * Get the name of the slowest receiver.
	 *
	 * @return The slowest receiver.
	 */
	action getSlowestReceiver() returns string {
		return values["slowestReceiver"];
	}

	/**
	 * Get the queue size of the slowest receiver.
	 *
	 * @return The queue size of the slowest receiver.
	 */
	action getSlowestReceiverQueueSize() returns integer {
		return values["slowestReceiverQueueSize"].toInteger();
	}

	/** @private */
	action prep(string input) returns string {
		return userPrefix + input;
	}

	/**
	 * Get a user-set status value of type float OR the alternative value specified if the key does not exist.
	 *
	 * @param key The name of the value to get.
	 * @param alt The alternative value to return if the key does not exist.
	 * @return The user status of type float or the alternate value if the key does not exist.
	 */
	action getUserFloatOr(string key, float alt) returns float {
		key := prep(key);
		if(values.hasKey(key)) then {
			return float.parse(values[key]);
		} else {
			return alt;
		}
	}

	/**
	 * Get a user-set status value of type integer OR the alternative value specified if the key does not exist.
	 *
	 * @param key The name of the value to get.
	 * @param alt The alternative value to return if the key does not exist.
	 * @return The user status of type integer or the alternate value if the key does not exist.
	 */
	action getUserIntegerOr(string key, integer alt) returns integer {
		key := prep(key);
		if(values.hasKey(key)) then {
			return integer.parse(values[key]);
		} else {
			return alt;
		}
	}

	/**
	 * Get a user-set status value of type boolean OR the alternative value specified if the key does not exist.
	 *
	 * @param key The name of the value to get.
	 * @param alt The alternative value to return if the key does not exist.
	 * @return The user status of type boolean or the alternate value if the key does not exist.
	 */
	action getUserBooleanOr(string key, boolean alt) returns boolean {
		key := prep(key);
		if(values.hasKey(key)) then {
			return boolean.parse(values[key]);
		} else {
			return alt;
		}
	}

	/**
	 * Get a user-set status value of type string OR the alternative value specified if the key does not exist.
	 *
	 * @param key The name of the value to get.
	 * @param alt The alternative value to return if the key does not exist.
	 * @return The user status of type string or the alternate value if the key does not exist.
	 */
	action getUserStringOr(string key, string alt) returns string {
		key := prep(key);
		if(values.hasKey(key)) then {
			return values[key];
		} else {
			return alt;
		}
	}

	/**
	 * Get a user-set status value of type float.
	 *
	 * @param key The name of the value to get.
	 * @return The user status of type float.
	 */
	action getUserFloat(string key) returns float {
		return float.parse(values[prep(key)]);
	}

	/**
	 * Get a user-set status value of type integer.
	 *
	 * @param key The name of the value to get.
	 * @return The user status of type integer.
	 */
	action getUserInteger(string key) returns integer {
		return integer.parse(values[prep(key)]);
	}

	/**
	 * Get a user-set status value of type boolean.
	 *
	 * @param key The name of the value to get.
	 * @return The user status of type boolean.
	 */
	action getUserBoolean(string key) returns boolean {
		return boolean.parse(values[prep(key)]);
	}

	/**
	 * Get a user-set status value of type string.
	 *
	 * @param key The name of the value to get.
	 * @return The user status of type string.
	 */
	action getUserString(string key) returns string {
		return values[prep(key)];
	}

	/** Get the full correlator status value dictionary .
	 *
	 * @return The full correlator status value dictionary.
	 */
	action getValues() returns dictionary<string,string> {
		return values;
	}
}


/**
 * EPL interface to the persistence functionality of the correlator.
 */
event Persistence {
	/**
	 * Asynchronously request a Correlator state persistence operation.
	 *
	 * At some point after this action is called, the correlator will commit its persistent state to storage. Once the commit has completed
	 * successfully, the provided callback will be invoked.
	 */
	action persist(action<> callback) {
		integer uid := integer.getUnique();
		management.asyncRequestSeq("doPersistNow", new sequence<string>, uid);
		on ManagementAck(uid = uid) {
			callback();
		}
	}

	/** @private*/
	import "ManagementPlugin" as management;
}

/**
 * EPL interface to the generic component management functionality of the correlator.
 */
event Component {

	/**
	 * Argument for attach/detachAsEventConsumer - use legacy mode.
	 * In this mode, all events are delivered in serial to the receiver on the default channel.
	 */
	constant integer CONNECT_LEGACY := 0;
	/**
	 * Argument for attach/detachAsEventConsumer - use parallel mode.
	 * In this mode, all events are delivered in parallel per channel.
	 */
	constant integer CONNECT_PARALLEL := 1;

	/** @private*/
	import "ManagementPlugin" as management;
	/**
	 * Get the hostname of the server the correlator is running on.
 	 */
	action getHostname() returns string {
		return management.getHostname();
	}
	/**
	 * Get the component name of the correlator.
	 */
	action getComponentName() returns string {
		return management.getComponentName();
	}
	/**
	 * Get the port the correlator is running on.  This is the
	 * main port number; extra ports specified via the config file
	 * are not accessible.
	 */
	action getComponentPort() returns integer {
		return management.getComponentPort();
	}
	/** 
	 * Get the correlator's logical ID.  This is a unique ID assigned to every correlator process at startup.
	 */
	action getComponentLogicalId() returns string {
		return management.getComponentLogicalId();
	}
	/** 
	 * Get the correlator's physical ID.  This is a unique ID generated for a component.
	 */
	action getComponentPhysicalId() returns string {
		return management.getComponentPhysicalId();
	}
	/**
	 * Get the number of CPUs the correlator has available to it.
	 */
	action getNumberCPUs() returns integer {
		return management.getNumberCPUs();
	}
	/**
	 * Get whether or not correlator is running with external clocking on.
	 */
	action isExternallyClocked() returns boolean {
		return management.isExternallyClocked();
	}

	/** Get the current license mode of the correlator - either "nolicensefile" or "licensefilesupplied". */
	action getLicenseMode() returns string {
		return management.getLicenseMode();
	}

	/**
	* Get the correlator status, internal values and user added stats.
	*
	* @return EngineStatus a representation of all status values 
	* including user added values.
	*/
	action getStatus() returns EngineStatus {
		string statusString := management.getStatus();
		return EngineStatus(dictionary<string,string>.parse(statusString));
	}

	/**
	* Set a specific value on a user added status, If the status
	* doesn't already exist this will add it.
	*
	* Note the value must be in string format.
	*
	* @param name The name of the user status to add.
	* @param value The value associated with the user Status value.
	*/
	action setUserStatus(string name, string value) {
		management.setUserStatus(name, value);
	}

	/**
	* Delete a specific user added status.
	*
	* @param name The name of the user status value to delete.
	*/
	action deleteUserStatus(string name) {
		management.deleteUserStatus(name);
	}

	/** @private*/
	action _escapeChannel(string c) returns string {
		if c.find(" ")=-1 and c.find("\n")=-1 and c.find("\\")=-1 then {
			return c;
		}
		return c.replaceAll("\\", "\\\\").replaceAll(" ", "\\x20").replaceAll("\n","\\n");
	}


	/**
	 * Connect to another Apama component to receive events on the specified channels.
	 * connectMode should be one of CONNECT_LEGACY or CONNECT_PARALLEL.
	 */
	action attachAsEventConsumerTo(string host, integer port, sequence<string> channels, boolean disconnectSlow, integer connectMode) {
		string channel;
		string parallel:="";
		if connectMode = CONNECT_PARALLEL then {
			parallel := "parallel ";
		}
		string disconnectSlowStr := "";
		if disconnectSlow then {
			disconnectSlowStr := "disconnectSlow ";
		}
		for channel in channels {
			management.asyncRequestSeq("addReceiveConnection",
			                           [host + " "+disconnectSlowStr + parallel + port.toString() + " " + _escapeChannel(channel)], -1);
		}
	}
	/**
	 * Disconnect from another Apama component to receive events on the specified channels.
	 * connectMode should be one of CONNECT_LEGACY or CONNECT_PARALLEL.
	 */
	action detachAsEventConsumerFrom(string host, integer port, sequence<string> channels, integer connectMode) {
		string channel;
		string parallel:="";
		if connectMode = CONNECT_PARALLEL then {
			parallel := "parallel ";
		}
		for channel in channels {
			management.asyncRequestSeq("removeReceiveConnection", 
			                           [host + " "+ parallel + port.toString() + " " + _escapeChannel(channel)], -1);
		}
	}
}

/**
 * EPL interface to correlator logging functionality. All methods on this interface are identical to the equivalent engine_management
 * requests, which are described in more detail in the user documentation.
 */
event Logging {
	/** @private*/
	import "ManagementPlugin" as management;

	/**
	 * Schedule simultaneous rotation of all correlator logs, including application logs and the input log. The rotation will happen shortly
	 * after this call.
	 */
	action rotateLogs() {
		management.asyncRequestSeq("rotateLogs", new sequence<string>, -1);
	}

	/** Change the file that the correlator logs to. */
	action setLogFile(string filename) {
		string ignore := management.syncRequestSeq("setLogFile", [filename]);
	}

	/** Set the destination of EPL log messages from the given package. A blank package is the root package. */
	action setApplicationLogFile(string pkg, string filename) {
		if(pkg = "") then {
			string ignore := management.syncRequestSeq("setApplicationLogFile", [filename]);
		} else {
			string ignore := management.syncRequestSeq("setApplicationLogFile", [filename, pkg]);
		}
	}

	/** Set the log level threshold of EPL log messages from the given package. A blank package is the root package. */
	action setApplicationLogLevel(string pkg, string level) {
		if(pkg = "") then {
			string ignore := management.syncRequestSeq("setApplicationLogLevel", [level]);
		} else {
			string ignore := management.syncRequestSeq("setApplicationLogLevel", [level, pkg]);
		}
	}

	/** Return the destination file for EPL log messages from the given package. A blank package is the root package. */
	action getApplicationLogFile(string pkg) returns string {
		if(pkg = "") then {
			return management.syncRequestSeq("getApplicationLogFile", new sequence<string>);
		} else {
			return management.syncRequestSeq("getApplicationLogFile", [pkg]);
		}
	}

	/** Return the log level threshold of EPL log messages from the given package. A blank package is the root package. */
	action getApplicationLogLevel(string pkg) returns string {
		if(pkg = "") then {
			return management.syncRequestSeq("getApplicationLogLevel", new sequence<string>);
		} else {
			return management.syncRequestSeq("getApplicationLogLevel", [pkg]);
		}
	}

	/** Reset logging for the given package to the default. A blank package is the root package. */
	action unsetApplicationLogFile(string pkg) {
		if(pkg = "") then {
			string ignore := management.syncRequestSeq("unsetApplicationLogFile", new sequence<string>);
		} else {
			string ignore := management.syncRequestSeq("unsetApplicationLogFile", [pkg]);
		}
	}

	/** Remove the log level from the given package, returning it to default. A blank package is the root package. */
	action unsetApplicationLogLevel(string pkg) {
		if(pkg = "") then {
			string ignore := management.syncRequestSeq("unsetApplicationLogLevel", new sequence<string>);
		} else {
			string ignore := management.syncRequestSeq("unsetApplicationLogLevel", [pkg]);
		}
	}
}
 0000002b C:\SoftwareAG\Apama\monitors\Management.mon
MONF 00000528 //*****************************************************************************
// Title:       ScenarioDeleterSupport
// Description: Provides event definitions for deleting Scenario instances. 
//
// Revision:    $Id: ScenarioDeleterSupport.mon 249541 2015-03-09 11:42:24Z bsp $
//
// $Copyright(c) 2004-2005, 2008-2009 Progress Software Corporation (PSC). All rights reserved.$
// $Copyright (c) 2013-2014 Software AG, Darmstadt, Germany and/or Software AG USA Inc., Reston, VA, USA, and/or its subsidiaries and/or its affiliates and/or their licensors.$
// Use, reproduction, transfer, publication or disclosure is prohibited except as specifically provided for in your License Agreement with Software AG
//
//*****************************************************************************

package com.apama.scenarios;

event DeleteAllScenarios {
	constant string CHANNEL := "ScenarioDeleter";
}

event DeleteScenariosByUser {
	string owner;
}

monitor ScenarioDeleterSupport {
	
	action onload() {
		
		DeleteAllScenarios deleteAll;
		on all DeleteAllScenarios():deleteAll {
			send deleteAll to DeleteAllScenarios.CHANNEL;
		}
		
		DeleteScenariosByUser deleteByUser;
		on all DeleteScenariosByUser():deleteByUser {
			send deleteByUser to DeleteAllScenarios.CHANNEL;
		}
	}
	
} 00000048 C:\SoftwareAG\Apama\monitors\scenario_support\ScenarioDeleterSupport.mon
MONF 0000476f /*
 * $Copyright (c) 2015 Software AG, Darmstadt, Germany and/or Software AG USA Inc., Reston, VA, USA, and/or its subsidiaries and/or its affiliates and/or their licensors.$ 
 * Use, reproduction, transfer, publication or disclosure is prohibited except as specifically provided for in your License Agreement with Software AG 
 *
 * Event definitions for providing a set of functions to assist with date and time formatting.
 * 
 */

package com.apama.correlator.timeformat;

/** 
 * An event providing a time-parser object that you can then use 
 * to make multiple calls using its <tt>parseTime()</tt> function, specifying
 * the date/time string to be parsed. 
 * 
 * Reusing a <tt>CompiledPattern</tt> object is significantly more efficient than 
 * providing the same time pattern (<tt>format</tt>) in multiple calls to parse 
 * functions defined on the <tt>TimeFormat</tt> event object.
 */
event CompiledPattern {
	/** @private*/ import "TimeFormatPlugin" as __plugin;
	/** @private*/ wildcard chunk __c;
	
	/**
	 * Parses the <tt>timeDate</tt> string according to the format provided
	 * by this time/date parser event object returning the result 
	 * as a <tt>float</tt> of seconds since the epoch, or <tt>NaN</tt> 
	 * if it cannot parse the specified string. 
	 *
	 * For more information about the return value, see the description of 
	 * "Time Format plug-in parse functions" in "Developing Apama Applications."
	 *
	 * @param timeDate String that represents a time and/or a date.
	 * @returns The resulting value of seconds since the epoch.
	 */
	action parseTime(string timeDate) returns float 
	{
		return __plugin.parseTimeFromPattern(__c, timeDate);
	}	
}

/** 
 * An event object providing a set of functions to assist with date and 
 * time formatting.
 */
event TimeFormat
{
	// Public
	
	/** 
	 * Converts the <tt>time</tt> parameter to the local time and returns 
	 * that time in the format specified.
	 *
	 * @param time Float that indicates the time you want to format. 
	 * This value is the number of seconds since the epoch in UTC.
	 * This is the same format used by the <tt>currentTime</tt> variable. 
	 * For information about the <tt>currentTime</tt> variable, see
	 * "Getting the current time" in "Developing Apama Applications".
	 * @param format String that specifies the format that you want 
	 * the returned time to have. For details about what you can specify 
	 * for the <tt>format</tt> string, see "Format specification for the TimeFormat 
	 * functions" in the documentation for "Developing Apama Applications".
	 * @returns A string representing the local time in the specified
	 * format.
	 */
	action format(float time, string format) returns string 
	{
		return __plugin.format(time, format);
	}
	
	/** 
	 * Converts the <tt>time</tt> parameter to the local time and returns 
	 * that time in the format specified. 
	 *
	 * The <tt>formatUTC()</tt> function always returns UTC (GMT no matter 
	 * what the local time is).
	 *
	 * @param time Float that indicates the time you want to format. 
	 * This value is the number of seconds since the epoch in UTC.
	 * This is the same format used by the <tt>currentTime</tt> variable. 
	 * For information about the <tt>currentTime</tt> variable, see
	 * "Getting the current time" in "Developing Apama Applications".
	 * @param format String that specifies the format that you want 
	 * the returned time to have. For details about what you can specify 
	 * for the <tt>format</tt> string, see "Format specification for the TimeFormat 
	 * functions" in the documentation for "Developing Apama Applications".
	 * @returns A string representing the local time in the specified
	 * format.
	 */
	action formatUTC(float time, string format) returns string 
	{
		return __plugin.formatUTC(time, format);
	}
	
	/** 
	 * Converts the <tt>time</tt> parameter, which is UTC, to the time in the time
	 * zone you specify and returns that time in the format you specify.
	 *
	 * @param time Float that indicates the time you want to format. 
	 * This value is the number of seconds since the epoch in UTC.
	 * This is the same format used by the <tt>currentTime</tt> variable. 
	 * For information about the <tt>currentTime</tt> variable, see
	 * "Getting the current time" in "Developing Apama Applications".
	 * @param format String that specifies the format that you want 
	 * the returned time to have. For details about what you can specify 
	 * for the <tt>format</tt> string, see "Format specification for the TimeFormat 
	 * functions" in the documentation for "Developing Apama Applications".
	 * @param tzName String that specifies the name of a time zone.
	 * @returns A string representing the local time in the specified
	 * format.
	 */
	action formatWithTimeZone(float time, string format, string tzName) returns string 
	{
		return __plugin.formatWithTimeZone(time, format, tzName);
	}

	/**
	 * Returns the local time as a float of seconds since the epoch (UTC).
	 * 
	 * This value has the same format as the <tt>currentTime</tt> variable. However, 
	 * the <tt>getTime()</tt> function returns the actual local time whereas the <tt>currentTime</tt> 
	 * variable contains the time that the event being processed was received by the 
	 * correlator. The time returned by the <tt>getTime()</tt> function is accurate to the
	 * millisecond except on Windows. On Windows, it returns a time that is accurate to 
	 * within 10 or 16 milliseconds depending on the machine configuration and Windows 
	 * version it is running on. 
	 * 
	 * <i>The Windows and UNIX versions of the Time Format plug-in are not guaranteed to return 
	 * the same time all the time. This is because the underlying system libraries that the plug-in 
	 * relies on have different interpretations of what constitutes local time in certain country 
	 * locales, in particular during summer time. This discrepancy is caused by the fact that at the 
	 * epoch, January 1st 1970, Great Britain was temporarily one hour ahead of UTC. Some UNIX system 
	 * libraries, like those on Solaris, account for this, others, like that on Windows, do not.</i>
	 *
	 * @returns The local time as a float of seconds since the epoch (UTC).
	 */
	action getSystemTime() returns float 
	{
		return __plugin.getTime();	
	}
		
	/**
	 * Parses the value contained by the <tt>timeDate</tt> parameter
	 * according to the format you specify in the <tt>format</tt> parameter, 
	 * interpreting it as a date and time in the local timezone. 
	 *
	 * The function returns the resulting value as a <tt>float</tt> of 
	 * seconds since the epoch, or <tt>NaN</tt> if it cannot parse the 
	 * specified string.
	 *
	 * e.g. <tt>float secsSinceEpoc := timeMgr.parseTime("yyyy.MM.dd G 'at' HH:mm:ss", "1996.07.10 AD at 15:08:56");</tt>
	 *
	 * @param format String that specifies the format of the value in the 
	 * <tt>timeDate</tt> parameter. For details about what you can specify here, 
	 * see "Format specification for the Time Format plug-in functions"
	 * in "Developing Apama Applications."
	 * @param timeDate String that contains the time you want to parse.
	 * @returns The resulting value of seconds since the epoch.
	 */
	action parseTime(string format, string timeDate) returns float 
	{
		return __plugin.parseTime(format, timeDate);
	}
	
	/**
	 * Parses the value contained by the <tt>timeDate</tt> parameter
	 * according to the format you specify in the <tt>format</tt> parameter, 
	 * interpreting the <tt>timeDate</tt> as a UTC date and time. 
	 * 
	 * The returned value is a <tt>float</tt> of seconds since the epoch, or 
	 * <tt>NaN</tt> if it cannot parse the specified string.
	 *
	 * e.g. <tt>float secsSinceEpoc := timeMgr.parseTimeUTC("yyyy.MM.dd G 'at' HH:mm:ss", "1996.07.10 AD at 15:08:56");</tt>
	 *
	 * @param format String that specifies the format of the value in the 
	 * <tt>timeDate</tt> parameter. For details about what you can specify here, 
	 * see "Format specification for the Time Format plug-in functions"
	 * in "Developing Apama Applications."
	 * @param timeDate String that contains the time you want to parse.
	 * @returns The resulting value of seconds since the epoch.
	 */	
	action parseTimeUTC(string format, string timeDate) returns float 
	{
		return __plugin.parseTimeUTC(format, timeDate);
	}	
	
	/**
	 * Parses the value contained by the <tt>timeDate</tt> parameter
	 * according to the format you specify in the <tt>format</tt> parameter, 
	 * interpreting it as a date and time in the named timezone specified
	 * by the <tt>tzName</tt> parameter. 
	 *
	 * The function returns the resulting value as a <tt>float</tt> of seconds 
	 * since the epoch, or <tt>NaN</tt> if it cannot parse the specified string.
	 *
	 * e.g. <tt>float secsSinceEpoc := timeMgr.parseTimeWithTimeZone("yyyy.MM.dd G 'at' HH:mm:ss", "1996.07.10 AD at 15:08:56", "Europe/London");</tt>
	 *
	 * @param format String that specifies the format of the value in the 
	 * <tt>timeDate</tt> parameter. For details about what you can specify here, 
	 * see "Format specification for the Time Format plug-in functions"
	 * in "Developing Apama Applications."
	 * @param timeDate String that contains the time you want to parse.
	 * @param tzName String that specifies the name of a time zone.
	 * @returns The resulting value of seconds since the epoch.
	 */
	action parseTimeWithTimeZone(string format, string timeDate, string tzName) returns float 
	{
		return __plugin.parseTimeWithTimeZone(format, timeDate, tzName);
	}	
	
	/**
	 * Returns a <tt>CompiledPattern</tt> object that can generate the time as a <tt>float</tt> 
	 * value that corresponds to the local date/time string to be parsed. 
	 *
	 * You can use the <tt>CompiledPattern</tt> object to make multiple calls using its <tt>parseTime()</tt> 
	 * function, specifying the date/time string to be parsed. Reusing a <tt>CompiledPattern</tt> object is 
	 * significantly more efficient than providing the same time pattern (<tt>format</tt>) in multiple calls to 
	 * the parse functions defined on the <tt>TimeFormat</tt> event object.
	 * 
	 * Example:
	 *
	 * The following example shows how you can use the <tt>CompiledPattern</tt> object 
	 * returned by the <tt>compilePattern()</tt> function to make multiple calls using its 
	 * <tt>parseTime()</tt> function:
	 *
	 * <tt>TimeFormat timeFormat := new TimeFormat;</tt><br />
	 * <tt>CompiledPattern timePattern := timeFormat.compilePattern(pattern);</tt><br />
	 * <tt>t1:=timePattern.parseTime(time1);</tt><br />
	 * <tt>t2:=timePattern.parseTime(time2);</tt><br />
	 * <tt>t3:=timePattern.parseTime(time3);</tt>
	 *
	 * When you call the <tt>compilePattern()</tt> function and then the <tt>CompiledPattern</tt> object's
	 * <tt>parseTime()</tt> function, the result is the same as calling one of the parse functions defined on the 
	 * <tt>TimeFormat</tt> object itself. The advantage of calling the <tt>compilePattern()</tt> function
	 * and then the <tt>CompiledPattern</tt> object's <tt>parseTime()</tt> function is that it is faster. 
	 * For example:
	 * 
	 * <tt>timeFormat.parse("yyyy.MM.dd G 'at' HH:mm:ss", "1996.07.10 AD at 15:08:56")</tt>
	 *
	 * If you use this pattern many times, it is faster to call <tt>compilePattern()</tt>, as follows:
	 *
	 * <tt>CompiledPattern timePattern := timeFormat.compilePattern("yyyy.MM.dd G 'at' HH:mm:ss");</tt><br />
	 * <tt>timePattern.parseTime(c,"1996.07.10 AD at 15:08:56");</tt>
	 *
	 * @param format String that specifies a set of instructions for parsing a time/date 
	 * object.
	 * @returns A CompiledPattern object that can generate the time as a <tt>float</tt> value
   * that corresponds to the local date/time string to be parsed.
	 */
	action compilePattern(string format) returns CompiledPattern {
		return CompiledPattern(__plugin.compilePattern(format));
	}
	
	/**
	 * Returns a <tt>CompiledPattern</tt> object that can generate the time as a <tt>float</tt> 
	 * value that corresponds to the UTC date/time string to be parsed. 
	 *
	 * You can use the <tt>CompiledPattern</tt> object to make multiple calls using its <tt>parseTime()</tt> 
	 * function, specifying the date/time string to be parsed. Reusing a <tt>CompiledPattern</tt> object is 
	 * significantly more efficient than providing the same time pattern (<tt>format</tt>) in multiple calls to 
	 * the parse functions defined on the <tt>TimeFormat</tt> event object.
	 * 
	 * Example:
	 *
	 * The following example shows how you can use the <tt>CompiledPattern</tt> object  
	 * returned by the <tt>compilePatternUTC()</tt> function to make multiple calls using its 
	 * <tt>parseTime()</tt> function:
	 *
	 * <tt>TimeFormat timeFormat := new TimeFormat;</tt><br />
	 * <tt>CompiledPattern timePattern := timeFormat.compilePatternUTC(pattern);</tt><br />
	 * <tt>t1:=timePattern.parseTime(time1);</tt><br />
	 * <tt>t2:=timePattern.parseTime(time2);</tt><br />
	 * <tt>t3:=timePattern.parseTime(time3);</tt>
	 *
	 * When you call the <tt>compilePatternUTC()</tt> function and then the <tt>CompiledPattern</tt> object's
	 * <tt>parseTime()</tt> function, the result is the same as calling one of the parse functions defined on the 
	 * <tt>TimeFormat</tt> object itself. The advantage of calling the <tt>compilePatternUTC()</tt> function
	 * and then the <tt>CompiledPattern</tt> object's <tt>parseTime()</tt> function is that it is faster. 
	 * For example:
	 * 
	 * <tt>timeFormat.parse("yyyy.MM.dd G 'at' HH:mm:ss", "1996.07.10 AD at 15:08:56")</tt>
	 *
	 * If you use this pattern many times, it is faster to call <tt>compilePatternUTC()</tt>, as follows:
	 *
	 * <tt>CompiledPattern timePattern := timeFormat.compilePatternUTC("yyyy.MM.dd G 'at' HH:mm:ss");</tt><br />
	 * <tt>timePattern.parseTime(c,"1996.07.10 AD at 15:08:56");</tt>
	 *
	 * @param format String that specifies a set of instructions for parsing a time/date 
	 * object.
	 * @returns A CompiledPattern object that can generate the time as a <tt>float</tt> value
   * that corresponds to the UTC date/time string to be parsed.
	 */
	action compilePatternUTC(string format) returns CompiledPattern
	{
		return CompiledPattern(__plugin.compilePatternUTC(format));
	}
	 
	/**
	 * Returns a <tt>CompiledPattern</tt> object that can generate the time as a <tt>float</tt> 
	 * value that corresponds to the date/time string to be parsed, in the specified timezone. 
	 *
	 * You can then use the <tt>CompiledPattern</tt> object to make multiple calls using its <tt>parseTime()</tt> 
	 * function, specifying the date/time string to be parsed. Reusing a <tt>CompiledPattern</tt> object is 
	 * significantly more efficient than providing the same time pattern (<tt>format</tt>) in multiple calls to 
	 * the parse functions defined on the <tt>TimeFormat</tt> event object.
	 * 
	 * Example:
	 *
	 * The following example shows how you can use the <tt>CompiledPattern</tt> object 
	 * returned by the <tt>compilePatternWithTimeZone()</tt> function to make multiple calls 
	 * using its <tt>parseTime()</tt> function:
	 *
	 * <tt>TimeFormat timeFormat := new TimeFormat;</tt><br />
	 * <tt>CompiledPattern timePattern := timeFormat.compilePatternWithTimeZone(pattern, tzone);</tt><br />
	 * <tt>t1:=timePattern.parseTime(time1);</tt><br />
	 * <tt>t2:=timePattern.parseTime(time2);</tt><br />
	 * <tt>t3:=timePattern.parseTime(time3);</tt>
	 *
	 * When you call the <tt>compilePatternWithTimeZone()</tt> function and then the <tt>CompiledPattern</tt> object's 
	 * <tt>parseTime()</tt> function, the result is the same as calling one of the parse functions defined on the 
	 * <tt>TimeFormat</tt> object itself. The advantage of calling the <tt>compilePatternWithTimeZone()</tt> function
	 * and then the <tt>CompiledPattern</tt> object's <tt>parseTime()</tt> function is that it is faster. 
	 * For example:
	 * 
	 * <tt>timeFormat.parse("yyyy.MM.dd G 'at' HH:mm:ss", "1996.07.10 AD at 15:08:56")</tt>
	 *
	 * If you use this pattern many times, it is faster to call <tt>compilePatternWithTimeZone()</tt>, as follows:
	 *
	 * <tt>CompiledPattern timePattern := timeFormat.compilePatternWithTimeZone("yyyy.MM.dd G 'at' HH:mm:ss", "Europe/London");</tt><br />
	 * <tt>timePattern.parseTime(c,"1996.07.10 AD at 15:08:56");</tt>
	 *
	 * @param format String that specifies a set of instructions for parsing a time/date 
	 * object.
	 * @param name String that specifies the name of a time zone.
	 * @returns A CompiledPattern object that can generate the time as a <tt>float</tt> value
   * that corresponds to the date/time string to be parsed, in the specified timezone.
	 */
	action compilePatternWithTimeZone(string format, string name) returns CompiledPattern
	{
		return CompiledPattern(__plugin.compilePatternWithTimeZone(format, name));
	}
	
	/**
	 * Returns a floating point (<tt>float</tt>) timestamp that represents the 
	 * number of seconds since an unspecified epoch (a zero point).
	 *
	 * The timestamp is accurate to one microsecond or better. The return value has no 
	 * necessary relationship to wall time or correlator time and should be used only 
	 * to compare similar timestamps. 
	 *
	 * Because the epoch is unspecified, you should use these timestamps in calculations 
	 * only with other timestamps generated by the <tt>getMicroTime()</tt> function or 
	 * with equivalent high-resolution timestamps generated by an Apama adapter.
	 * 
	 * For example, you might want to use high-resolution timestamps for calculating 
	 * event processing latency in an Apama application. You can compare the timestamps 
	 * across processes on the same machine. The timestamps are not comparable between 
	 * different machines.
	 * 
	 * @returns A floating point (<tt>float</tt>) timestamp that represents the 
	 * number of seconds since an unspecified epoch (a zero point). 
	 */
	action getMicroTime() returns float 
	{
		return __plugin.getMicroTime();
	}
	
	// Private
	
	/** @private*/ import "TimeFormatPlugin" as __plugin;
} 00000031 C:\SoftwareAG\Apama\monitors\TimeFormatEvents.mon
MONF 0000a34a //
// MemoryStore.mon
//
// Provide shared and (optionally) persistent storage to MonitorScripts
//
// $Copyright(c) 2009,2012-2013 Progress Software Corporation (PSC). All rights reserved.\$
// $Copyright (c) 2013-2015 Software AG, Darmstadt, Germany and/or Software AG USA Inc., Reston, VA, USA, and/or its subsidiaries and/or its affiliates and/or their licensors.\$
// Use, reproduction, transfer, publication or disclosure is prohibited except as specifically provided for in your License Agreement with Software AG

package com.apama.memorystore;

/** Sent to the application when an asynchronous activity has finished. 
*/
event Finished {
	/** A unique identifier for the operation that has completed, 
		which will have been returned by the action that initiated the 
		operation. */
	integer id;
	/** True if the operation succeeded. */
	boolean success;
	/** An optional status or error message providing more detail 
		about why the operation succeeded or failed. */
	string status;
}

/** Represents the schema for a table in the store, specifying the field 
	names, types, and other behavioural information about the table. 

	The fields and types sequences must be the same length as one another, 
	specifying the names of fields and their corresponding types.
	
	Never construct a Schema using a "Schema(...)" expression. 
	Instead, always create a variable initialized to "new Schema", and then set 
	parameters individually with separate statements. This ensures that your 
	code will continue to work without modification if a subsequent version 
	of the MemoryStore adds more parameters to the Schema event.
	
	@see Store#prepare() The schema for a table is specified when it is 
		prepared. 
*/
event Schema {
	/** A sequence specifying the name of each field in this table. 

		For looking up the index of a specific field name (e.g. while 
		processing RowChanged events), use Table.getFieldIndex() which is 
		more efficient than using indexOf() on the fields sequence.
		
		@see Table#getFieldIndex() for efficiently obtaining the index of 
		a field.
	**/
	wildcard sequence<string> fields;
	
	/** A sequence specifying the type of each field in this table. 
	
		Permitted types are currently: 'integer', 'boolean', 'float' and 
		'string'. 
		
		This sequence must have the same length as the fields sequence. 
	*/
	wildcard sequence<string> types;
	
	/** When this field is true, the MemoryStore makes the rows in the 
		in-memory table associated with this schema available to the 
		scenario service, so they can be used by external clients and 
		dashboards. 
		
		That is, the MemoryStore creates DataViews that contain the state of 
		this table that has been committed (but not necessarily persisted) to 
		the shared in-memory representation of the table.
		
		Committing changes to the in-memory row in a table that is exposing 
		its in-memory state causes events to be sent to the main context. 
	 */
	boolean exposeMemoryView;
	/** When this field is true, the MemoryStore makes the rows in the 
		on-disk table associated with this schema available to the 
		scenario service, so they can be used by external clients and 
		dashboards.  
		
		That is, the MemoryStore creates DataViews that contain data from this 
		table that has been persisted to disk. 
		
		You cannot expose a persistent view of a table in a 
		correlator-persistent store.
 	*/
	boolean exposePersistentView;
	
	/** Specifies the display name for an in-memory table. */
	string memoryViewDisplayName;
	/** Describes an in-memory table. */
	string memoryViewDescription;
	/** Specifies the display name for an on-disk table. */
	string persistentViewDisplayName;
	/** Describes an on-disk table. */
	string persistentViewDescription;
}

/** Represents an ordered and typed set of named fields in a table, with a 
	key that uniquely identifies the row within the table. 

	A Row is an atomic snapshot of the data in the
	table and once returned, a Row's contents are guaranteed to be consistent 
	and unchanging.

	Any changes the user makes to a Row are local until commit is called.
	
	@see Table A table holds a collection of rows. 
*/
event Row {
	/** @private*/ import "MemoryStorePlugin" as plugin;
	/** @private*/ wildcard chunk c;

	/** Update the local Row event to reflect the current state of the shared
		MemoryStore table, losing any local modifications.
	
		row.update() has a very similar effect to r := t.get(r.getKey()),
		but is more efficient and doesn't require access to the table.
	*/
	action update() {
		plugin.RowChunk_update(c);
	}

	/** Copy the contents of the specified other Row into this one.
	
		The two rows that these Row events represent must have the same schema 
		but they need not be in the same table.

		r1.copy(r2) is a more efficient equivalent to
		r1.setX("a", r2.getX("a")) for every field. 
		
		You cannot copy a row between a correlator-persistent store and an 
		in-memory, on-disk or distributed store.
	*/
	action copy(Row other) {
		plugin.RowChunk_copy(c, other.c);
	}

	/** Mark the row for deletion when the table is committed.
	
		Fields cannot be accessed after this call, until the removal is
		successfully committed (or reverted using update).
	*/
	action remove() {
		plugin.RowChunk_remove(c);
	}
	
	/** Try to commit changes from this Row back to the table, returning false 
		if the Row is not up to date.
	
		If nothing else has modified the row in the table since this
		Row was created, the changes are committed so other users can
		see them and true is returned.
	
		Otherwise, false is returned and the table is left unchanged. 
		Do not repeatedly call tryCommit() without also calling update(), 
		or use the more efficient Row.tryCommitOrUpdate(). 
		
		Note that a MemoryStore commit operation synchronously writes changes 
		made to the local Row instance back to the table which is shared by all 
		monitors inside the Correlator (or the distributed store), but does not 
		cause a persistent write to disk (see Table#persist). 

		@return true if the table was modified; false if an error occurred and 
		the table was not changed. 
		
		@see Row#tryCommitOrUpdate()
	*/
	action tryCommit() returns boolean {
		return plugin.RowChunk_tryCommit(c,currentTime);
	}


	/** Try to commit changes from this Row back to the table, which could 
		result in an exception being thrown if the Row is not up to date.
	
		If nothing else has modified the row in the table since this
		Row was created, the changes are committed so other users can
		see them.
	
		Otherwise, the monitor instance terminates with an error and the table 
		is left unchanged.
		
		If there is any chance that the same row may be written to 
		concurrently - for example by multiple correlator contexts, and/or if 
		using a distributed MemoryStore - use Row.tryCommit() instead of 
		Row.commit() so that it is possible to recover from this situation 
		when it occurs. 

		Note that a MemoryStore commit operation synchronously writes changes 
		made to the local Row instance back to the table which is shared by all 
		monitors inside the Correlator (or the distributed store), but does not 
		cause a persistent write to disk (see Table#persist). 

		@see Row#tryCommit()
		@see Row#tryCommitOrUpdate()
	*/
	action commit() {
		plugin.RowChunk_commit(c,currentTime);
	}

	/** Try to commit, or update if not. 
	
		This is a more efficient equivalent to calling tryCommit then
		calling update if returning false.
	
		Note that a MemoryStore commit operation synchronously writes changes 
		made to the local Row instance back to the table which is shared by all 
		monitors inside the Correlator (or the distributed store), but does not 
		cause a persistent write to disk (see Table#persist). 
		
		@return true if the commit succeeded, false if the commit failed but 
		the row has been updated ready for a retry attempt. 
		
	*/
	action tryCommitOrUpdate() returns boolean {
		return plugin.RowChunk_tryCommitOrUpdate(c,currentTime);
	}

	/** Get the key for this Row. 
	
		It cannot be changed.
	*/
	action getKey() returns string {
		return plugin.RowChunk_getKey(c);
	}

	/** Indicate whether this row was in the table when the Row
		was created or updated. 
		
		It is possible to construct a Row that has no corresponding entry in 
		the table, in which case all fields have default values. 
		
		Calling commit on a Row for which inTable()=false will create the row.
	*/
	action inTable() returns boolean {
		return plugin.RowChunk_inTable(c);
	}

	// Get the value
	//
	// The correct variant must be called for the type of the column
	// in the table.

	/** Get the value of the specified field in this row 
		(must only be used on boolean fields). 
	*/
	action getBoolean(string name) returns boolean {
		return plugin.RowChunk_getBoolean(c,name);
	}

	/** Get the value of the specified field in this row 
		(must only be used on integer fields). 
	*/
	action getInteger(string name) returns integer {
		return plugin.RowChunk_getInteger(c,name);
	}

	/** Get the value of the specified field in this row 
		(must only be used on float fields). 
	*/
	action getFloat(string name) returns float {
		return plugin.RowChunk_getFloat(c,name);
	}

	/** Get the value of the specified field in this row 
		(must only be used on string fields). 
	*/
	action getString(string name) returns string {
		return plugin.RowChunk_getString(c,name);
	}

	// Set the value
	//
	// The correct variant must be called for the type of the column
	// in the table.

	/** Set the value of the specified field in this row 
		(must only be used on boolean fields). 
	*/
	action setBoolean(string name, boolean b) {
		plugin.RowChunk_setBoolean(c,name,b);
	}

	/** Set the value of the specified field in this row 
		(must only be used on integer fields). 
	*/
	action setInteger(string name, integer i) {
		plugin.RowChunk_setInteger(c,name,i);
	}

	/** Set the value of the specified field in this row 
		(must only be used on float fields). 
	*/
	action setFloat(string name, float f) {
		plugin.RowChunk_setFloat(c,name,f);
	}

	/** Set the value of the specified field in this row 
		(must only be used on string fields). 
	*/
	action setString(string name, string s) {
		plugin.RowChunk_setString(c,name,s);
	}

	/** Get the name of the Table that contains this Row. */
	action getTableName() returns string {
		return plugin.RowChunk_getTableName(c);
	}

	/** Get the name of the Store that contains this Row's Table. */
	action getStoreName() returns string {
		return plugin.RowChunk_getStoreName(c);
	}
}


/**
 * Sent to the application on every successful row commit in tables
 * the application has subscribed to.
 *
 * Supported in distributed stores only.
 *
 * Events are sent for every change, whether from the local or a
 * remote node, for tables where the subscribe method has been called.
 *
 * The old and new values are provided as sequences.  Access to previous 
 * and new values are thus available (though note the setting of
 * rowChangedOldValueRequired); for example:
 <pre>
<br/>	integer positionRowId := tbl.getFieldIndex("position");
<br/>	RowChanged rowChanged;
<br/>	on all RowChanged(storeName = STORE, 
<br/>	                  tableName = TABLE):rowChanged {
<br/>		// we handle things simply by treating an update as a remove followed by an insert:
<br/>		if (rowChanged.changeType = RowChanged.REMOVE or
<br/>		    rowChanged.changeType = RowChanged.UPDATE) then {
<br/>			position := position - float.parse(rowChanged.oldFieldValues[positionRowId]);
<br/>		}
<br/>		if rowChanged.changeType = RowChanged.INSERT or
<br/>		   rowChanged.changeType = RowChanged.UPDATE then {
<br/>			position := position + float.parse(rowChanged.newFieldValues[positionRowId]);
<br/>		}
<br/>		log "Position is now "+position.toString();
<br/>	}
 </pre>
 * @see Table#subscribeRowChanged() for subscribing to RowChanged events
 */
event RowChanged {
	/** Value for changeType when a row is added to a table. */
	constant integer INSERT := 1;

	/** Value for changeType when a row is removed from a table. */
	constant integer REMOVE := 2;

	/** Value for changeType when a row is modified in a table. */
	constant integer UPDATE := 3;

	/**
	 * One of INSERT, REMOVE, UPDATE for
	 * rows being added, removed, updated.
	 */
	integer changeType;

	/**
	 * Name of the store that the table is in.
	 */
	string storeName;

	/**
	 * Name of the table that the row is in.
	 */
	string tableName;

	/**
	 * The key value for the changed row.
	 */
	string key;

	/**
	 * Old values of the row, if available.
	 *
 	 * The old values of the row, in toString() format, in the
	 * order defined by the table's Schema.  For UPDATE
	 * changeTypes, this is only populated if the storeFactory
	 * bean property rowChangedOldValueRequired is true (the
	 * default value is provider-specific).
	 *
	 * For INSERT (or UPDATE if rowChangedOldValueRequired is
	 * false), this will be an empty sequence, otherwise it will
	 * have as many entries as there are fields in the schema.
	 *
	 * The field values can be recovered by using the parse method
	 * on the field's type
	 * (e.g. <tt>integer.parse(rc.oldFieldValues[i])</tt>),except
	 * for strings which are inserted without any escaping, so do
	 * not need to be parsed. 
	 *
	 * Use Table.getFieldIndex() to efficiently map a field name
	 * to an index in this sequence (although consider caching the
	 * index in a variable to avoid unnecessary lookups).
	 *
	 * @see Table#getFieldIndex() for mapping from field name to
	 * index.
	 */
	sequence<string> oldFieldValues;

	/**
	 * New values of the row.
	 *
 	 * The new values of the row, in toString() format, in the order defined 
	 * by the table's Schema.
	 *
	 * For REMOVE, this will be an empty sequence, otherwise it 
	 * will have as many entries as there are fields in the schema.
	 *
	 * The field values can be recovered by using the parse method
	 * on the field's type (e.g. <tt>integer.parse(rc.newFieldValues[i])</tt>), 
	 * except for strings which are inserted without any escaping, so do not 
	 * need to be parsed. 
	 *
	 * Use Table.getFieldIndex() to efficiently map a field name to an index 
	 * in this sequence (although consider caching the index in a 
	 * variable to avoid unnecessary lookups).
	 *
	 * @see Table#getFieldIndex() for mapping from field name to index. 
	 */
	sequence<string> newFieldValues;
	
	/** 
	 * Get a display string representing this event's change type. 
	 *
	 * @return "INSERT", "REMOVE" or "UPDATE". 
	 */
	action getChangeTypeString() returns string {
		if changeType = INSERT then {
			return "INSERT";
		} else if changeType = REMOVE then {
			return "REMOVE";
		} else if changeType = UPDATE then {
			return "UPDATE";
		} else {
			return "UNKNOWN:"+changeType.toString();
		}
	}
}

/** Represents an iterator that can be used to step through each 
	Row of a Table in turn, making changes or reading data from the row. 
	
	@see Table#begin() Gets an iterator, beginning from the start of the table.
*/
event Iterator {
	/** @private*/ import "MemoryStorePlugin" as plugin;
	/** @private*/ wildcard chunk c;

	/** Checks whether this Iterator has now reached the end of
		the Table. 
	
		You should check done() is not true before you call other Iterator 
		actions (except for appendKeys() and getKeys()).
	*/
	action done() returns boolean {
		return plugin.IteratorChunk_done(c);
	}

	/** Step this Iterator to the next row in the table.
	
		If there are no more rows the Iterator becomes done. 
		
		To avoid an error that will terminate the monitor instance, always 
		use done() to check that the iterator has not reached the end of the 
		table before calling this action. 		
	*/
	action step() {
		plugin.IteratorChunk_step(c);
	}
	
	/** Get the key for the row this Iterator is pointing at.
	
		To avoid an error that will terminate the monitor instance, always 
		use done() to check that the iterator has not reached the end of the 
		table before calling this action. 
	*/
	action getKey() returns string {
		return plugin.IteratorChunk_getKey(c);
	}

	/** Get the Row this Iterator is pointing at.
	
		It is possible that the row the iterator is pointing at is no longer 
		present. This can happen if another monitor deleted the row or table, 
		or cleared the table while the iterator was pointing at that row.

		If the requested row is no longer there, you receive a Row event that 
		represents a row in which all fields have default values and for which 
		Row.inTable() is false. This is the same result as if you call 
		Table.get() on a key that does not exist yet.
	
		To avoid an error that will terminate the monitor instance, always 
		use done() to check that the iterator has not reached the end of the 
		table before calling this action. 
	*/
	action getRow() returns Row {
		return Row(plugin.IteratorChunk_getRow(c));
	}

	/** Append to the specified sequence, keys for up to n consecutive
		rows of the Table, beginning where this Iterator is pointing.
	
		The iterator will be advanced. If it becomes
		done then fewer than n keys will be appended.
		
		@param seq The sequence which is to be updated with the keys from the 
		following n table rows. 
		@param n The number of keys to get and append to the sequence. 
	*/
	action appendKeys(sequence<string> seq, integer n) {
		integer start := seq.size();
		seq.setSize(start+n);
		seq.setSize(plugin.IteratorChunk_appendKeysImpl(c, seq, start));
	}

	/** Get the keys for up to n consecutive rows of the Table beginning
		where this Iterator is pointing.
	
		The iterator will be advanced. If it becomes
		done, a sequence of fewer than n keys will be returned.

		The first key in the returned sequence is the key of the row that the 
		iterator is pointing at when the action is called. When this action is 
		finished, the iterator is pointing at the row immediately beyond that 
		of the last key that was returned. 
		
		@param n The number of keys to get and append to the sequence. 
	*/
	action getKeys(integer n) returns sequence<string> {
		sequence<string> result := new sequence<string>;
		appendKeys(result, n);
		return result;
	}
}

/** Represents a collection of rows in a store, with a defined schema.
	
	A table consists of a series of rows, each identified by a key and
	containing other values with names and types according to the
	table's Schema.
	
	A table typically resides in memory, you can also store it on 
	disk if you want to, or a table can be stored on a distributed cache.
	
	@see Store#open() Tables exist within a named Store, which is used to 
		create and open tables. 
*/
event Table {
	/** @private*/ import "MemoryStorePlugin" as plugin;
	/** @private*/ wildcard chunk c;


	/** Add the table Row with the specified key.
	
		On distributed stores, for performance reasons this action doesn't
		check if there is a Row already present in the the table with the
		specified key. To check if the Row is present in the store, use the
		Table.get() action.
		
		@param key The name/key uniquely identifying the row. 
		@return An empty Row event.
	*/
	action add(string key) returns Row {
		return Row(plugin.TableChunk_add(c, key));
	}

	/** Get the table Row with the specified key. 
	
		If there is no row with the specified key, this action returns 
		without error, with a Row event that contains default values for the 
		fields in the row. A call to the Row.inTable() action returns false.
		
		@param key The name/key uniquely identifying the row. 
		@return A Row event representing an atomic snapshot of the committed 
			data in the table when the action was called. 		
	*/
	action get(string key) returns Row {
		return Row(plugin.TableChunk_get(c,key));
	}
	
	/** Remove the specified row from the table. 
	
		If the row does not exist, this action does nothing.

		@param key The name/key uniquely identifying the row. 
	*/
	action remove(string key) {
		plugin.TableChunk_remove(c,key);
	}

	/** Change the row with the specified key by applying an action to it.
	
		It is possible for another context to commit changes to this row 
		between the time mutate() obtains a Row event to represent the row and 
		the time mutate() tries to commit the changes that result from 
		executing the specified action. In this situation, the MemoryStore 
		automatically calls the specified action again on the most recently 
		committed row content; therefore mutation actions must be designed to 
		cope with being called repeatedly without causing unwanted side 
		effects.
	
		@param name The name/key uniquely identifying the row. 
		@param a An action that (idempotently) performs the desired change to 
			the row. 
	*/
	action mutate(string key, action<Row> a) {
		Row row := get(key);
		boolean done := false;
		while not done { a(row); done := row.tryCommitOrUpdate(); }
	}

	/** Mutate all rows in the Table by applying the specified action.
	
		This can temporarily consume a lot of memory when called on a 
		relatively large table because the Correlator does no garbage 
		collection until action execution is complete. A few thousand rows are 
		unlikely to present a problem. Beyond that, it depends on how many 
		fields are in each row, how many rows are in the table, and how much 
		RAM is available.

		@param a An action that performs the desired change to 
			each row in the table. 
	*/
	action mutateAll(action<Row> a) {
		Iterator i := begin();
		while not i.done() {
			Row row := i.getRow();
			boolean done := false;
			while row.inTable() and not done {
				a(row); done := row.tryCommitOrUpdate();
			}
			i.step();
		}
	}

	/** Remove all rows from the table. */
	action clear() {
		plugin.TableChunk_clear(c);
	}

	/** Indicate whether or not a row with the specified key is present
		in the table.
	
		t.hasKey("foo") is a more efficient alternative to
		t.get("foo").inTable()
		
		@param key The name/key uniquely identifying the row. 
	*/
	action hasKey(string key) returns boolean {
		return plugin.TableChunk_hasKey(c,key);
	}

	/** Return an iterator to the beginning of the Table.
	*/
	action begin() returns Iterator {
		return Iterator(plugin.TableChunk_begin(c));
	}

	/** Returns a sequence that contains the keys for all the rows in this 
		table. 
		
		The keys are in an arbitrary order.
 	*/
	action getKeys() returns sequence<string> {
		Iterator i := begin();
		sequence<string> result := i.getKeys(plugin.TableChunk_size(c));
		// Clean up any residue if a race means we didn't get everything
		while not i.done() { i.appendKeys(result, 16); }
		return result;
	}

	/** Persist this table's committed changes back to stable storage, asynchronously.
	
		Note that any local changes to a Row that were not committed will not 
		be written to disk (see Row#commit()). 

		Only on-disk persistent stores can be persisted using this action. 
		It is not possible to call this method on Correlator-persistent tables 
		since all changes committed to such tables will be written to disk 
		automatically in the same transaction as changes to the state of 
		persistent EPL monitors. 
		
		@return The unique identifier for this operation, which will be 
			included in the Finished event sent after the operation is 
			complete. 
		@see Finished A Finished event will be sent when this asynchronous 
			operation has completed. 
	*/
	action persist() returns integer {
		return plugin.TableChunk_persist(c,currentTime);
	}

	/** Enqueue an event for each row in the table, taken by parsing the string 
		data in the specified table field/column as an event string.
		
		The field must be of string type, and its value for every row should be 
		an Apama event string, in the same form that you would send to the 
		Correlator (e.g. "mypackage.MyEvent(123, [false,true])")

	
		This action is most likely to be useful when you are migrating from the 
		StateStore Correlator plug-in to the MemoryStore. In the StateStore 
		plug-in, persistent data re-entered the Correlator as sent events.
		
		This is only supported for non-distributed stores.
	
		@param fieldName The name of the table field whose values are event 
			strings that should be sent. 
		@return The unique identifier for this operation, which will be 
			included in the Finished event sent after the column data for 
			the last row has been sent. 
		@see Finished A Finished event will be sent when this asynchronous 
			operation has completed. 
	*/
	action enqueueColumn(string fieldName) returns integer {
		return plugin.TableChunk_enqueueColumn(c, fieldName);
	}

	/** Get the name of this Table. */
	action getTableName() returns string {
		return plugin.TableChunk_getTableName(c);
	}

	/** Get the name of the Store that contains this table. */
	action getStoreName() returns string {
		return plugin.TableChunk_getStoreName(c);
	}

	/**
	 * Subscribe to be notified of all successful commits in
	 * this table.
	 *
 	 * This is only supported for tables in a distributed store, 
	 * and only if the underlying provider supports this feature. 
	 *
	 * The monitor instance will be terminated with an error if this 
	 * action is called on a store that does not support it. 
	 *
	 * It is important to note that (due to the nature of distributed store 
	 * technology) there is no way to atomically subscribe to notifications 
	 * and get an initial snapshot of the table's contents, so 
	 * applications that perform an initial iteration over the table's contents 
	 * to initialize some state before subscribing are at risk of 
	 * double-counting any keys that are mutated after the subscription 
	 * and during the iteration/initialization process. 
	 *
	 * For tables that are relatively small (and fit entirely inside the 
	 * memory of a single Correlator), a common pattern for addressing the need 
	 * for a table snapshot to initialize state before subscribing is to 
	 * maintain a per-key dictionary of last-seen values, updated by both the 
	 * initial iteration and the RowChanged notification events; any RowChanged 
	 * event whose old value does not match the last-seen dictionary must be 
	 * ignored, to avoid double-counting changes. To save memory, entries from 
	 * the last-seen dictionary can be removed after the first RowChanged event 
	 * for that key. 
	 *
	 * @return A unique subscriptionId that can be passed to any instance of 
	 * this Table to unsubscribe.
	 * @see RowChanged The event sent whenever a row is modified.
	 * @see Table#unsubscribe() Unsubscribe using this action. 
	 */
	action subscribeRowChanged() returns integer 
	{
		integer subscriptionId := integer.getUnique(); 
		plugin.TableChunk_subscribeRowChanged(c, subscriptionId);
		return subscriptionId;
	}
	
	/**
	 * Cancel a previous subscription.
	 *
	 * This is only supported for tables in a distributed store.
	 *
	 * If other monitors in this context have also subscribed,
	 * events will still be delivered until they have all unsubscribed.
	 * subscriptionId must be a value returned from a subscribeRowChanged() on 
	 * this table.
	 *
	 * @param subscriptionId Identifier for the subscription to remove, 
	 * returned by subscribeRowChanged().
	 */
	action unsubscribe(integer subscriptionId) 
	{ 
		plugin.TableChunk_unsubscribe(c, subscriptionId);
	}

	/**
	 * Return the index of a field.
	 *
	 * Returns what position in the Schema the specified field
	 * appears at. If a name that is not in Schema fieldName
	 * is passed in, the monitor instance will be terminated with an error.
	 *
	 * Using this action is more efficient that getting the same information 
	 * by using indexOf on the Schema.fields sequence. 
	 *
	 * @param fieldName A field name that exists in this table's Schema. 
	 */
	action getFieldIndex(string fieldName) returns integer 
	{ 
		return plugin.TableChunk_getFieldIndex(c, fieldName);
	}
}

/** Represents a store, which is a container for a uniquely named collection of 
	tables. 
	
	@see Storage Provides actions to prepare and open a Store. 
	@see Table Represents the tables in a Store. 
*/
event Store {
	/** @private*/ import "MemoryStorePlugin" as plugin;
	/** @private*/ wildcard chunk c;
	

	/** Prepare a table so that subsequent open calls for it will succeed.
	
		If the table already exists, the Schema provided to the prepare
		function must completely match the existing schema. If it does 
		not already exist, the Schema will be used to create the table.
	
		The function returns an id; once preparation is complete a
		Finished event with that id will be sent.
		
		This call is idempotent - if the table was already successfully 
		prepared, it will return success immediately.
		
		@param name A unique name that will be used to identify the new table. 
		@param schema The schema identifying the fields of the new table. 
		@return The unique identifier for this operation, which will be 
			included in the Finished event sent after the operation is 
			complete. 
		@see Finished A Finished event will be sent when this asynchronous 
			operation has completed. 
	*/
	action prepare(string name, Schema schema) returns integer {
		return plugin.StoreChunk_prepare3(c, name, schema.fields.toString() + " " + schema.types.toString(), schema.fields, schema.types, schema.exposeMemoryView, schema.exposePersistentView, schema.memoryViewDisplayName, schema.memoryViewDescription, schema.persistentViewDisplayName, schema.persistentViewDescription, currentTime);
	}

	/** Indicate whether or not a Table with the specified name is
		present in the Store.
	
		@param name The unique table name to check for. 
		@return True if it is safe to call open() on the specified table; false 
			if preparation failed or is still in progress. 
	*/
	action hasTable(string name) returns boolean {
		return plugin.StoreChunk_hasTable(c, name);
	}

	/** Open the specified table, once it has been prepared.
	
		It is an error to call this before a prepare call for the table
		has finished without error.
		
		@param name The name of the table to be opened, which must be the same 
			as the name used when the table was first prepared. 
		@see #prepare() This action must not be called until prepare has 
			completed successfully. 
	*/
	action open(string name) returns Table {
		return Table(plugin.StoreChunk_open(c,name));
	}

	/** Persist committed changes back to stable storage, asynchronously.
	
		Only on-disk persistent stores can be persisted using this action. 
		It is not possible to call this method on Correlator-persistent tables 
		since all changes committed to such tables will be 
		written to disk automatically in the same transaction as changes to 
		the state of persistent EPL monitors. 
		
		@return The unique identifier for this operation, which will be 
			included in the Finished event sent after the operation is 
			complete. 
		@see Finished A Finished event will be sent when this asynchronous 
			operation has completed. 
	*/
	action persist() returns integer {
		return plugin.StoreChunk_persist(c,currentTime);
	}

	/** Create a backup of the Store.
	
		The backup is created in the specified file, which is
		overwritten if it already exists.
	
		Only persistent (on-disk) stores can be backed up. 
		
		@return The unique identifier for this operation, which will be 
			included in the Finished event sent after the operation is 
			complete. 
		@see Finished A Finished event will be sent when this asynchronous 
			operation has completed. 
	*/
	action backup(string filename) returns integer {
		return plugin.StoreChunk_backup(c, filename);
	}

	/** Get the name of this Store. */
	action getStoreName() returns string {
		return plugin.StoreChunk_getStoreName(c);
	}
}

/** MemoryStore factory interface for creating Store event objects. 

	There are several different types of Store supported by MemoryStore:
	<ul>
	<li>In-memory only (no persistence)</li>
	<li>Persistent (using a specified database file on disk; 
		committed changes go to disk when the persist() action is called)</li>
	<li>Correlator-persistent (using the Correlator's integrated data store; 
		committed changes go to disk periodically when the Correlator takes a 
		snapshot of persistent monitor state and persists the results). </li>
	<li>Distributed (Using a distributed cache technology to share and access
		data across multiple distributed nodes). </li>
	</ul>
	Correlator-persistent stores are only available if Correlator persistence 
	has been enabled. Non-persistent monitors may use any type of store, but 
	a monitor marked as 'persistent' may ONLY access Correlator-persistent 
	stores.

	To use the MemoryStore, create a monitor field (or variable) to hold the 
	Storage factory event, and use one of the prepare* actions to 
	asynchronously get a Store of the desired type ready for use, and give it 
	a unique name. Once the store has been prepared, use the open(name) action 
	to get a Store event that can be used to interact with the store. 
	
	e.g.<pre>
	<br/>using com.apama.memorystore.Storage; 
	<br/>using com.apama.memorystore.Store; 
	<br/>using com.apama.memorystore.Finished; 
	<br/>
	<br/>monitor Test { 
	<br/>	Storage storage; 
	<br/>	Store store; 
	<br/>
	<br/>	action onload() { 
	<br/>		integer id := storage.prepareOrCreate("storename", "/tmp/example.dat"); 
	<br/>		Finished f; 
	<br/>		on Finished(id=id):f
	<br/>		{
	<br/>			if not f.success then { log "Store creation failed: "+f.status at ERROR; die; } 
	<br/>			store := storage.open("storename");
	<br/>			...
	<br/>		}
	<br/>	} 
	<br/>}
	</pre>

	@see Store The purpose of the Storage event is to prepare and open stores. 
	@see #prepareOrCreate() The most commonly used action for preparing a 
		persistent Store. 
	@see #open() Once a store has been prepared it can be opened. 
*/
event Storage {
	/** @private*/ import "MemoryStorePlugin" as plugin;

	/** Prepare an in-memory read-write Store 
		to be opened and used by the application.
	
		@param name A unique name identifying this Store. 
		@return The unique identifier for this operation, which will be 
			included in the Finished event sent after the operation is 
			complete and it becomes safe to call open() on this store. 
		@see Finished A Finished event will be sent when this asynchronous 
			operation has completed. 
	*/
	action prepareInMemory(string name) returns integer {
		return plugin.prepareInMemory(name);
	}

	/** Prepare a distributed store (e.g. distributed cache) 
		to be opened and used by the application.
	
		@param name A unique name identifying this Store, 
			which also specifies the id of its configuration bean in the XML 
			configuration file. This name should not contain spaces.
		@return The unique identifier for this operation, which will be 
			included in the Finished event sent after the operation is 
			complete and it becomes safe to call open() on this store. 
		@see Finished A Finished event will be sent when this asynchronous 
			operation has completed. 

	*/
	action prepareDistributed(string name) returns integer {
		return plugin.prepareDistributed(name);
	}

	/** Indicates whether configuration for the given distributed
	 	store name exists. 

		Returning false indicates that a prepareDistributed of
		the store name will definitely fail.  True indicates
		it may succeed, but is not a guarantee of success.
		Does not actually connect to the distributed store.

		@return false if prepareDistributed for the given
			store name will definitely fail
	*/
	action hasDistributedStore(string name) returns boolean {
		return plugin.hasDistributedStore(name);
	}


	/** Prepare a Correlator-persistent read-write Store 
		to be opened and used by the application.
		
		All committed changes made to a Correlator-persistent store are 
		persisted to disk automatically whenever the Correlator takes a 
		snapshot of the Correlator persistent application state. 
		Because the Correlator determines when to persist its state, you 
		cannot explicitly request persistence for a Correlator-persistent 
		store or any tables it contains.

		Attempts to create a Correlator-persistent store in a Correlator that 
		does not have persistence enabled will result in an error that will 
		terminate the monitor instance. 
	
		@param name A unique name identifying this Store. 
		@return The unique identifier for this operation, which will be 
			included in the Finished event sent after the operation is 
			complete and it becomes safe to call open() on this store. 
		@see Finished A Finished event will be sent when this asynchronous 
			operation has completed. 
	*/
	action prepareCorrelatorPersistent(string name) returns integer {
		return plugin.prepareCorrelatorPersistent(name);
	}

	/** Prepare a persistent read-write Store associated with an existing 
		database file on disk. 
	
		The specified file must exist and must have been created by the 
		MemoryStore. If the specified file does not exist, or cannot be opened 
		for read-write, the Finished event will indicate failure. 
		
		@param name A unique name identifying this Store. 
		@param filename The path of the database file holding the persistent 
			store. If a relative path is specified, it is relative to the 
			directory that contains the associated Apama Studio project
			(i.e. the Correlator working directory). 
		@return The unique identifier for this operation, which will be 
			included in the Finished event sent after the operation is 
			complete and it becomes safe to call open() on this store. 
		@see Finished A Finished event will be sent when this asynchronous 
			operation has completed. 
	*/			
	action prepare(string name, string filename) returns integer {
		return plugin.prepare(name, filename);
	}

	/** Prepare a persistent read-write Store associated with a 
		database file on disk, which will be created if it does not exist 
		already. 
	
		@param name A unique name identifying this Store. 
		@param filename The path of the database file holding the persistent 
[...]
TIME 0000000f 1484231375.2,22
TIME 0000000f 1484231375.2,14
TIME 0000000f 1484231375.2,28
TIME 0000000f 1484231375.2,10
TIME 0000000f 1484231375.2,27
TIME 0000000f 1484231375.2,25
TIME 0000000e 1484231375.2,9
TIME 0000000f 1484231375.2,11
TIME 0000000f 1484231375.2,15
TIME 0000000e 1484231375.2,7
TIME 0000000e 1484231375.2,5
TIME 0000000f 1484231375.2,20
TIME 0000000f 1484231375.2,17
TIME 0000000f 1484231375.2,23
TIME 0000000f 1484231375.2,18
TIME 0000000f 1484231375.2,26
TIME 0000000e 1484231375.2,8
TIME 0000000f 1484231375.2,21
TIME 0000000e 1484231375.2,3
TIME 0000000f 1484231375.2,16
TIME 0000000f 1484231375.4,12
TIME 0000000f 1484231375.4,13
TIME 0000000e 1484231375.4,6
TIME 0000000f 1484231375.4,24
TIME 0000000f 1484231375.4,19
TIME 0000000f 1484231375.4,22
TIME 0000000f 1484231375.4,14
TIME 0000000f 1484231375.4,28
TIME 0000000f 1484231375.4,10
TIME 0000000f 1484231375.4,27
TIME 0000000f 1484231375.4,25
TIME 0000000e 1484231375.4,9
TIME 0000000f 1484231375.4,11
TIME 0000000f 1484231375.4,15
TIME 0000000e 1484231375.4,7
TIME 0000000e 1484231375.4,5
TIME 0000000f 1484231375.4,20
TIME 0000000f 1484231375.4,17
TIME 0000000f 1484231375.4,23
TIME 0000000f 1484231375.4,18
TIME 0000000f 1484231375.4,26
TIME 0000000e 1484231375.4,8
TIME 0000000f 1484231375.4,21
TIME 0000000f 1484231375.4,16
TIME 0000000e 1484231375.5,3
TIME 0000000f 1484231375.7,12
TIME 0000000f 1484231375.7,13
TIME 0000000e 1484231375.7,6
TIME 0000000f 1484231375.7,24
TIME 0000000f 1484231375.7,19
TIME 0000000f 1484231375.7,22
TIME 0000000f 1484231375.7,14
TIME 0000000f 1484231375.7,28
TIME 0000000f 1484231375.7,10
TIME 0000000f 1484231375.7,27
TIME 0000000f 1484231375.7,25
TIME 0000000e 1484231375.7,9
TIME 0000000f 1484231375.7,11
TIME 0000000f 1484231375.7,15
TIME 0000000e 1484231375.7,7
TIME 0000000e 1484231375.7,5
TIME 0000000f 1484231375.7,20
TIME 0000000f 1484231375.7,17
TIME 0000000f 1484231375.7,23
TIME 0000000f 1484231375.7,18
TIME 0000000f 1484231375.7,26
TIME 0000000e 1484231375.7,8
TIME 0000000f 1484231375.7,21
TIME 0000000f 1484231375.7,16
TIME 0000000e 1484231375.8,3
TIME 0000000f 1484231375.9,12
TIME 0000000f 1484231375.9,13
TIME 0000000e 1484231375.9,6
TIME 0000000f 1484231375.9,24
TIME 0000000f 1484231375.9,19
TIME 0000000f 1484231375.9,22
TIME 0000000f 1484231375.9,14
TIME 0000000f 1484231375.9,28
TIME 0000000f 1484231375.9,10
TIME 0000000f 1484231375.9,27
TIME 0000000f 1484231375.9,25
TIME 0000000e 1484231375.9,9
TIME 0000000f 1484231375.9,11
TIME 0000000f 1484231375.9,15
TIME 0000000e 1484231375.9,7
TIME 0000000e 1484231375.9,5
TIME 0000000f 1484231375.9,20
TIME 0000000f 1484231375.9,17
TIME 0000000f 1484231375.9,23
TIME 0000000f 1484231375.9,18
TIME 0000000f 1484231375.9,26
TIME 0000000e 1484231375.9,8
TIME 0000000f 1484231375.9,21
TIME 0000000f 1484231375.9,16
CONN 0000003e 10592948570232793350:10598514333176244486 from 127.0.0.1:63450
DISC 0000003e 10592948570232793350:10598514333176244486 from 127.0.0.1:63450
TIME 0000000e 1484231376.1,3
TIME 0000000f 1484231376.2,12
TIME 0000000f 1484231376.2,13
TIME 0000000e 1484231376.2,6
TIME 0000000f 1484231376.2,24
TIME 0000000f 1484231376.2,19
TIME 0000000f 1484231376.2,22
TIME 0000000f 1484231376.2,14
TIME 0000000f 1484231376.2,28
TIME 0000000f 1484231376.2,10
TIME 0000000f 1484231376.2,27
TIME 0000000f 1484231376.2,25
TIME 0000000e 1484231376.2,9
TIME 0000000f 1484231376.2,11
TIME 0000000f 1484231376.2,15
TIME 0000000e 1484231376.2,7
TIME 0000000e 1484231376.2,5
TIME 0000000f 1484231376.2,20
TIME 0000000f 1484231376.2,17
TIME 0000000f 1484231376.2,23
TIME 0000000f 1484231376.2,18
TIME 0000000f 1484231376.2,26
TIME 0000000e 1484231376.2,8
TIME 0000000f 1484231376.2,21
TIME 0000000f 1484231376.2,16
TIME 0000000f 1484231376.4,12
TIME 0000000f 1484231376.4,13
TIME 0000000e 1484231376.4,6
TIME 0000000f 1484231376.4,24
TIME 0000000f 1484231376.4,19
TIME 0000000f 1484231376.4,22
TIME 0000000f 1484231376.4,14
TIME 0000000f 1484231376.4,28
TIME 0000000f 1484231376.4,10
TIME 0000000f 1484231376.4,27
TIME 0000000f 1484231376.4,25
TIME 0000000e 1484231376.4,9
TIME 0000000f 1484231376.4,11
TIME 0000000f 1484231376.4,15
TIME 0000000e 1484231376.4,7
TIME 0000000e 1484231376.4,5
TIME 0000000f 1484231376.4,20
TIME 0000000f 1484231376.4,17
TIME 0000000f 1484231376.4,23
TIME 0000000f 1484231376.4,18
TIME 0000000f 1484231376.4,26
TIME 0000000e 1484231376.4,8
TIME 0000000f 1484231376.4,21
TIME 0000000e 1484231376.4,3
TIME 0000000f 1484231376.4,16
TIME 0000000f 1484231376.7,12
TIME 0000000f 1484231376.7,13
TIME 0000000e 1484231376.7,6
TIME 0000000f 1484231376.7,24
TIME 0000000f 1484231376.7,19
TIME 0000000f 1484231376.7,22
TIME 0000000f 1484231376.7,14
TIME 0000000f 1484231376.7,28
TIME 0000000f 1484231376.7,10
TIME 0000000f 1484231376.7,27
TIME 0000000f 1484231376.7,25
TIME 0000000e 1484231376.7,9
TIME 0000000f 1484231376.7,11
TIME 0000000f 1484231376.7,15
TIME 0000000e 1484231376.7,7
TIME 0000000e 1484231376.7,5
TIME 0000000f 1484231376.7,20
TIME 0000000f 1484231376.7,17
TIME 0000000f 1484231376.7,23
TIME 0000000f 1484231376.7,18
TIME 0000000f 1484231376.7,26
TIME 0000000e 1484231376.7,8
TIME 0000000f 1484231376.7,21
TIME 0000000e 1484231376.7,3
TIME 0000000f 1484231376.7,16
TIME 0000000f 1484231376.9,12
TIME 0000000f 1484231376.9,13
TIME 0000000e 1484231376.9,6
TIME 0000000f 1484231376.9,24
TIME 0000000f 1484231376.9,19
TIME 0000000f 1484231376.9,22
TIME 0000000f 1484231376.9,14
TIME 0000000f 1484231376.9,28
TIME 0000000f 1484231376.9,10
TIME 0000000f 1484231376.9,27
TIME 0000000f 1484231376.9,25
TIME 0000000e 1484231376.9,9
TIME 0000000f 1484231376.9,11
TIME 0000000f 1484231376.9,15
TIME 0000000e 1484231376.9,7
TIME 0000000e 1484231376.9,5
TIME 0000000f 1484231376.9,20
TIME 0000000f 1484231376.9,17
TIME 0000000f 1484231376.9,23
TIME 0000000f 1484231376.9,18
TIME 0000000f 1484231376.9,26
TIME 0000000e 1484231376.9,8
TIME 0000000f 1484231376.9,21
TIME 0000000f 1484231376.9,16
TIME 0000000f 1484231377.2,12
TIME 0000000f 1484231377.2,13
TIME 0000000e 1484231377.2,6
TIME 0000000f 1484231377.2,24
TIME 0000000f 1484231377.2,19
TIME 0000000f 1484231377.2,22
TIME 0000000f 1484231377.2,14
TIME 0000000f 1484231377.2,28
TIME 0000000f 1484231377.2,10
TIME 0000000f 1484231377.2,27
TIME 0000000f 1484231377.2,25
TIME 0000000e 1484231377.2,9
TIME 0000000f 1484231377.2,11
TIME 0000000f 1484231377.2,15
TIME 0000000e 1484231377.2,7
TIME 0000000e 1484231377.2,5
TIME 0000000f 1484231377.2,20
TIME 0000000f 1484231377.2,17
TIME 0000000f 1484231377.2,23
TIME 0000000f 1484231377.2,18
TIME 0000000f 1484231377.2,26
TIME 0000000e 1484231377.2,8
TIME 0000000f 1484231377.2,21
TIME 0000000f 1484231377.2,16
TIME 0000000e 1484231377.3,3
TIME 0000000f 1484231377.4,12
TIME 0000000f 1484231377.4,13
TIME 0000000e 1484231377.4,6
TIME 0000000f 1484231377.4,24
TIME 0000000f 1484231377.4,19
TIME 0000000f 1484231377.4,22
TIME 0000000f 1484231377.4,14
TIME 0000000f 1484231377.4,28
TIME 0000000f 1484231377.4,10
TIME 0000000f 1484231377.4,27
TIME 0000000f 1484231377.4,25
TIME 0000000e 1484231377.4,9
TIME 0000000f 1484231377.4,11
TIME 0000000f 1484231377.4,15
TIME 0000000e 1484231377.4,7
TIME 0000000e 1484231377.4,5
TIME 0000000f 1484231377.4,20
TIME 0000000f 1484231377.4,17
TIME 0000000f 1484231377.4,23
TIME 0000000f 1484231377.4,18
TIME 0000000f 1484231377.4,26
TIME 0000000e 1484231377.4,8
TIME 0000000f 1484231377.4,21
TIME 0000000f 1484231377.4,16
TIME 0000000e 1484231377.6,3
TIME 0000000f 1484231377.7,12
TIME 0000000f 1484231377.7,13
TIME 0000000e 1484231377.7,6
TIME 0000000f 1484231377.7,24
TIME 0000000f 1484231377.7,19
TIME 0000000f 1484231377.7,22
TIME 0000000f 1484231377.7,14
TIME 0000000f 1484231377.7,28
TIME 0000000f 1484231377.7,10
TIME 0000000f 1484231377.7,27
TIME 0000000f 1484231377.7,25
TIME 0000000e 1484231377.7,9
TIME 0000000f 1484231377.7,11
TIME 0000000f 1484231377.7,15
TIME 0000000e 1484231377.7,7
TIME 0000000e 1484231377.7,5
TIME 0000000f 1484231377.7,20
TIME 0000000f 1484231377.7,17
TIME 0000000f 1484231377.7,23
TIME 0000000f 1484231377.7,18
TIME 0000000f 1484231377.7,26
TIME 0000000e 1484231377.7,8
TIME 0000000f 1484231377.7,21
TIME 0000000f 1484231377.7,16
TIME 0000000e 1484231377.8,3
TIME 0000000f 1484231377.9,12
TIME 0000000f 1484231377.9,13
TIME 0000000e 1484231377.9,6
TIME 0000000f 1484231377.9,24
TIME 0000000f 1484231377.9,19
TIME 0000000f 1484231377.9,22
TIME 0000000f 1484231377.9,14
TIME 0000000f 1484231377.9,28
TIME 0000000f 1484231377.9,10
TIME 0000000f 1484231377.9,27
TIME 0000000f 1484231377.9,25
TIME 0000000e 1484231377.9,9
TIME 0000000f 1484231377.9,11
TIME 0000000f 1484231377.9,15
TIME 0000000e 1484231377.9,7
TIME 0000000e 1484231377.9,5
TIME 0000000f 1484231377.9,20
TIME 0000000f 1484231377.9,17
TIME 0000000f 1484231377.9,23
TIME 0000000f 1484231377.9,18
TIME 0000000f 1484231377.9,26
TIME 0000000e 1484231377.9,8
TIME 0000000f 1484231377.9,21
TIME 0000000f 1484231377.9,16
TIME 0000000f 1484231378.2,12
TIME 0000000f 1484231378.2,13
TIME 0000000e 1484231378.2,6
TIME 0000000f 1484231378.2,24
TIME 0000000f 1484231378.2,19
TIME 0000000f 1484231378.2,22
TIME 0000000f 1484231378.2,14
TIME 0000000f 1484231378.2,28
TIME 0000000f 1484231378.2,10
TIME 0000000f 1484231378.2,27
TIME 0000000f 1484231378.2,25
TIME 0000000e 1484231378.2,9
TIME 0000000f 1484231378.2,11
TIME 0000000f 1484231378.2,15
TIME 0000000e 1484231378.2,7
TIME 0000000e 1484231378.2,5
TIME 0000000f 1484231378.2,20
TIME 0000000f 1484231378.2,17
TIME 0000000f 1484231378.2,23
TIME 0000000f 1484231378.2,18
TIME 0000000f 1484231378.2,26
TIME 0000000e 1484231378.2,8
TIME 0000000f 1484231378.2,21
TIME 0000000e 1484231378.2,3
TIME 0000000f 1484231378.2,16
TIME 0000000f 1484231378.4,12
TIME 0000000f 1484231378.4,13
TIME 0000000e 1484231378.4,6
TIME 0000000f 1484231378.4,24
TIME 0000000f 1484231378.4,19
TIME 0000000f 1484231378.4,22
TIME 0000000f 1484231378.4,14
TIME 0000000f 1484231378.4,28
TIME 0000000f 1484231378.4,10
TIME 0000000f 1484231378.4,27
TIME 0000000f 1484231378.4,25
TIME 0000000e 1484231378.4,9
TIME 0000000f 1484231378.4,11
TIME 0000000f 1484231378.4,15
TIME 0000000e 1484231378.4,7
TIME 0000000e 1484231378.4,5
TIME 0000000f 1484231378.4,20
TIME 0000000f 1484231378.4,17
TIME 0000000f 1484231378.4,23
TIME 0000000f 1484231378.4,18
TIME 0000000f 1484231378.4,26
TIME 0000000e 1484231378.4,8
TIME 0000000f 1484231378.4,21
TIME 0000000f 1484231378.4,16
TIME 0000000e 1484231378.5,3
TIME 0000000f 1484231378.7,12
TIME 0000000f 1484231378.7,13
TIME 0000000e 1484231378.7,6
TIME 0000000f 1484231378.7,24
TIME 0000000f 1484231378.7,19
TIME 0000000f 1484231378.7,22
TIME 0000000f 1484231378.7,14
TIME 0000000f 1484231378.7,28
TIME 0000000f 1484231378.7,10
TIME 0000000f 1484231378.7,27
TIME 0000000f 1484231378.7,25
TIME 0000000e 1484231378.7,9
TIME 0000000f 1484231378.7,11
TIME 0000000f 1484231378.7,15
TIME 0000000e 1484231378.7,7
TIME 0000000e 1484231378.7,5
TIME 0000000f 1484231378.7,20
TIME 0000000f 1484231378.7,17
TIME 0000000f 1484231378.7,23
TIME 0000000f 1484231378.7,18
TIME 0000000f 1484231378.7,26
TIME 0000000e 1484231378.7,8
TIME 0000000f 1484231378.7,21
TIME 0000000f 1484231378.7,16
TIME 0000000e 1484231378.8,3
TIME 0000000f 1484231378.9,12
TIME 0000000f 1484231378.9,13
TIME 0000000e 1484231378.9,6
TIME 0000000f 1484231378.9,24
TIME 0000000f 1484231378.9,19
TIME 0000000f 1484231378.9,22
TIME 0000000f 1484231378.9,14
TIME 0000000f 1484231378.9,28
TIME 0000000f 1484231378.9,10
TIME 0000000f 1484231378.9,27
TIME 0000000f 1484231378.9,25
TIME 0000000e 1484231378.9,9
TIME 0000000f 1484231378.9,11
TIME 0000000f 1484231378.9,15
TIME 0000000e 1484231378.9,7
TIME 0000000e 1484231378.9,5
TIME 0000000f 1484231378.9,20
TIME 0000000f 1484231378.9,17
TIME 0000000f 1484231378.9,23
TIME 0000000f 1484231378.9,18
TIME 0000000f 1484231378.9,26
TIME 0000000e 1484231378.9,8
TIME 0000000f 1484231378.9,21
TIME 0000000f 1484231378.9,16
TIME 0000000e 1484231379.1,3
TIME 0000000f 1484231379.2,12
TIME 0000000f 1484231379.2,13
TIME 0000000e 1484231379.2,6
TIME 0000000f 1484231379.2,24
TIME 0000000f 1484231379.2,19
TIME 0000000f 1484231379.2,22
TIME 0000000f 1484231379.2,14
TIME 0000000f 1484231379.2,28
TIME 0000000f 1484231379.2,10
TIME 0000000f 1484231379.2,27
TIME 0000000f 1484231379.2,25
TIME 0000000e 1484231379.2,9
TIME 0000000f 1484231379.2,11
TIME 0000000f 1484231379.2,15
TIME 0000000e 1484231379.2,7
TIME 0000000e 1484231379.2,5
TIME 0000000f 1484231379.2,20
TIME 0000000f 1484231379.2,17
TIME 0000000f 1484231379.2,23
TIME 0000000f 1484231379.2,18
TIME 0000000f 1484231379.2,26
TIME 0000000e 1484231379.2,8
TIME 0000000f 1484231379.2,21
TIME 0000000f 1484231379.2,16
TIME 0000000f 1484231379.4,12
TIME 0000000f 1484231379.4,13
TIME 0000000e 1484231379.4,6
TIME 0000000f 1484231379.4,24
TIME 0000000f 1484231379.4,19
TIME 0000000f 1484231379.4,22
TIME 0000000f 1484231379.4,14
TIME 0000000f 1484231379.4,28
TIME 0000000f 1484231379.4,10
TIME 0000000f 1484231379.4,27
TIME 0000000f 1484231379.4,25
TIME 0000000e 1484231379.4,9
TIME 0000000f 1484231379.4,11
TIME 0000000f 1484231379.4,15
TIME 0000000e 1484231379.4,7
TIME 0000000e 1484231379.4,5
TIME 0000000f 1484231379.4,20
TIME 0000000f 1484231379.4,17
TIME 0000000f 1484231379.4,23
TIME 0000000f 1484231379.4,18
TIME 0000000f 1484231379.4,26
TIME 0000000e 1484231379.4,8
TIME 0000000f 1484231379.4,21
TIME 0000000e 1484231379.4,3
TIME 0000000f 1484231379.4,16
TIME 0000000f 1484231379.7,12
TIME 0000000f 1484231379.7,13
TIME 0000000e 1484231379.7,6
TIME 0000000f 1484231379.7,24
TIME 0000000f 1484231379.7,19
TIME 0000000f 1484231379.7,22
TIME 0000000f 1484231379.7,14
TIME 0000000f 1484231379.7,28
TIME 0000000f 1484231379.7,10
TIME 0000000f 1484231379.7,27
TIME 0000000f 1484231379.7,25
TIME 0000000e 1484231379.7,9
TIME 0000000f 1484231379.7,11
TIME 0000000f 1484231379.7,15
TIME 0000000e 1484231379.7,7
TIME 0000000e 1484231379.7,5
TIME 0000000f 1484231379.7,20
TIME 0000000f 1484231379.7,17
TIME 0000000f 1484231379.7,23
TIME 0000000f 1484231379.7,18
TIME 0000000f 1484231379.7,26
TIME 0000000e 1484231379.7,8
TIME 0000000f 1484231379.7,21
TIME 0000000e 1484231379.7,3
TIME 0000000f 1484231379.7,16
TIME 0000000f 1484231379.9,12
TIME 0000000f 1484231379.9,13
TIME 0000000e 1484231379.9,6
TIME 0000000f 1484231379.9,24
TIME 0000000f 1484231379.9,19
TIME 0000000f 1484231379.9,22
TIME 0000000f 1484231379.9,14
TIME 0000000e 1484231379.9,2
TIME 0000000e 1484231379.8,5
TIME 0000000e 1484231379.8,7
TIME 0000000e 1484231379.8,8
TIME 0000000e 1484231379.8,9
TIME 0000000f 1484231379.8,10
TIME 0000000f 1484231379.8,11
TIME 0000000f 1484231379.8,15
TIME 0000000f 1484231379.8,16
TIME 0000000f 1484231379.8,17
TIME 0000000f 1484231379.8,18
TIME 0000000f 1484231379.8,20
TIME 0000000f 1484231379.9,29
TIME 0000000f 1484231379.8,21
TIME 0000000f 1484231379.9,28
TIME 0000000f 1484231379.9,27
TIME 0000000f 1484231379.9,25
TIME 0000000f 1484231379.8,23
TIME 0000000f 1484231379.9,26
TIME 0000000f 1484231380.1,30
TIME 0000000f 1484231380.2,12
TIME 0000000f 1484231380.2,13
TIME 0000000e 1484231380.2,6
TIME 0000000f 1484231380.2,24
TIME 0000000f 1484231380.2,19
TIME 0000000f 1484231380.2,22
TIME 0000000f 1484231380.2,14
TIME 0000000f 1484231380.2,28
TIME 0000000f 1484231380.2,10
TIME 0000000f 1484231380.2,27
TIME 0000000f 1484231380.2,25
TIME 0000000e 1484231380.2,9
TIME 0000000f 1484231380.2,11
TIME 0000000f 1484231380.2,15
TIME 0000000e 1484231380.2,7
TIME 0000000e 1484231380.2,5
TIME 0000000f 1484231380.2,20
TIME 0000000f 1484231380.2,17
TIME 0000000f 1484231380.2,23
TIME 0000000f 1484231380.2,18
TIME 0000000f 1484231380.2,26
TIME 0000000e 1484231380.2,8
TIME 0000000f 1484231380.2,21
TIME 0000000f 1484231380.2,16
TIME 0000000e 1484231380.3,3
TIME 0000000f 1484231380.4,12
TIME 0000000f 1484231380.4,13
TIME 0000000e 1484231380.4,6
TIME 0000000f 1484231380.4,24
TIME 0000000f 1484231380.4,19
TIME 0000000f 1484231380.4,22
TIME 0000000f 1484231380.4,14
TIME 0000000f 1484231380.4,28
TIME 0000000f 1484231380.4,10
TIME 0000000f 1484231380.4,27
TIME 0000000f 1484231380.4,25
TIME 0000000e 1484231380.4,9
TIME 0000000f 1484231380.4,11
TIME 0000000f 1484231380.4,15
TIME 0000000e 1484231380.4,7
TIME 0000000e 1484231380.4,5
TIME 0000000f 1484231380.4,20
TIME 0000000f 1484231380.4,17
TIME 0000000f 1484231380.4,23
TIME 0000000f 1484231380.4,18
TIME 0000000f 1484231380.4,26
TIME 0000000e 1484231380.4,8
TIME 0000000f 1484231380.4,21
TIME 0000000f 1484231380.4,16
TIME 0000000e 1484231380.6,3
TIME 0000000f 1484231380.7,12
TIME 0000000f 1484231380.7,13
TIME 0000000e 1484231380.7,6
TIME 0000000f 1484231380.7,24
TIME 0000000f 1484231380.7,19
TIME 0000000f 1484231380.7,22
TIME 0000000f 1484231380.7,14
TIME 0000000f 1484231380.7,28
TIME 0000000f 1484231380.7,10
TIME 0000000f 1484231380.7,27
TIME 0000000f 1484231380.7,25
TIME 0000000e 1484231380.7,9
TIME 0000000f 1484231380.7,11
TIME 0000000f 1484231380.7,15
TIME 0000000e 1484231380.7,7
TIME 0000000e 1484231380.7,5
TIME 0000000f 1484231380.7,20
TIME 0000000f 1484231380.7,17
TIME 0000000f 1484231380.7,23
TIME 0000000f 1484231380.7,18
TIME 0000000f 1484231380.7,26
TIME 0000000e 1484231380.7,8
TIME 0000000f 1484231380.7,21
TIME 0000000f 1484231380.7,16
TIME 0000000e 1484231380.8,3
TIME 0000000f 1484231380.9,12
TIME 0000000f 1484231380.9,13
TIME 0000000e 1484231380.9,6
TIME 0000000f 1484231380.9,24
TIME 0000000f 1484231380.9,19
TIME 0000000f 1484231380.9,22
TIME 0000000f 1484231380.9,14
TIME 0000000f 1484231380.9,28
TIME 0000000f 1484231380.9,10
TIME 0000000f 1484231380.9,27
TIME 0000000f 1484231380.9,25
TIME 0000000e 1484231380.9,9
TIME 0000000f 1484231380.9,11
TIME 0000000f 1484231380.9,15
TIME 0000000e 1484231380.9,7
TIME 0000000e 1484231380.9,5
TIME 0000000f 1484231380.9,20
TIME 0000000f 1484231380.9,17
TIME 0000000f 1484231380.9,23
TIME 0000000f 1484231380.9,18
TIME 0000000f 1484231380.9,26
TIME 0000000e 1484231380.9,8
TIME 0000000f 1484231380.9,21
TIME 0000000f 1484231380.9,16
TIME 0000000f 1484231381.2,12
TIME 0000000f 1484231381.2,13
TIME 0000000e 1484231381.2,6
TIME 0000000f 1484231381.2,24
TIME 0000000f 1484231381.2,19
TIME 0000000f 1484231381.2,22
TIME 0000000f 1484231381.2,14
TIME 0000000f 1484231381.2,28
TIME 0000000f 1484231381.2,10
TIME 0000000f 1484231381.2,27
TIME 0000000f 1484231381.2,25
TIME 0000000e 1484231381.2,9
TIME 0000000f 1484231381.2,11
TIME 0000000f 1484231381.2,15
TIME 0000000e 1484231381.2,7
TIME 0000000e 1484231381.2,5
TIME 0000000f 1484231381.2,20
TIME 0000000f 1484231381.2,17
TIME 0000000f 1484231381.2,23
TIME 0000000f 1484231381.2,18
TIME 0000000f 1484231381.2,26
TIME 0000000e 1484231381.2,8
TIME 0000000f 1484231381.2,21
TIME 0000000e 1484231381.2,3
TIME 0000000f 1484231381.2,16
TIME 0000000f 1484231381.4,12
TIME 0000000f 1484231381.4,13
TIME 0000000e 1484231381.4,6
TIME 0000000f 1484231381.4,24
TIME 0000000f 1484231381.4,19
TIME 0000000f 1484231381.4,22
TIME 0000000f 1484231381.4,14
TIME 0000000f 1484231381.4,28
TIME 0000000f 1484231381.4,10
TIME 0000000f 1484231381.4,27
TIME 0000000f 1484231381.4,25
TIME 0000000e 1484231381.4,9
TIME 0000000f 1484231381.4,11
TIME 0000000f 1484231381.4,15
TIME 0000000e 1484231381.4,7
TIME 0000000e 1484231381.4,5
TIME 0000000f 1484231381.4,20
TIME 0000000f 1484231381.4,17
TIME 0000000f 1484231381.4,23
TIME 0000000f 1484231381.4,18
TIME 0000000f 1484231381.4,26
TIME 0000000e 1484231381.4,8
TIME 0000000f 1484231381.4,21
TIME 0000000f 1484231381.4,16
TIME 0000000e 1484231381.5,3
TIME 0000000f 1484231381.7,12
TIME 0000000f 1484231381.7,13
TIME 0000000e 1484231381.7,6
TIME 0000000f 1484231381.7,24
TIME 0000000f 1484231381.7,19
TIME 0000000f 1484231381.7,22
TIME 0000000f 1484231381.7,14
TIME 0000000f 1484231381.7,28
TIME 0000000f 1484231381.7,10
TIME 0000000f 1484231381.7,27
TIME 0000000f 1484231381.7,25
TIME 0000000e 1484231381.7,9
TIME 0000000f 1484231381.7,11
TIME 0000000f 1484231381.7,15
TIME 0000000e 1484231381.7,7
TIME 0000000e 1484231381.7,5
TIME 0000000f 1484231381.7,20
TIME 0000000f 1484231381.7,17
TIME 0000000f 1484231381.7,23
TIME 0000000f 1484231381.7,18
TIME 0000000f 1484231381.7,26
TIME 0000000e 1484231381.7,8
TIME 0000000f 1484231381.7,21
TIME 0000000f 1484231381.7,16
