VERS 00000001 4
HEAD 00001338 <?xml version="1.0"?>
<?xml-stylesheet type="text/xsl" href="/resources/transform.xslt"?><header><componentName>correlator</componentName><version>9.10.0.0.275046</version><build>rel/9.10.0.x@275046</build><buildPlatform>amd64-win</buildPlatform><platform>Windows 7 (Service Pack 1)</platform><cputype>GenuineIntel family 6 model 12 stepping 3 Intel(R) Core(TM) i7-4790S CPU @ 3.20GHz</cputype><cpus>8</cpus><javaEnabled>true</javaEnabled><replayLogMode>inputLog</replayLogMode><args><arg>C:\SoftwareAG\Apama\bin\correlator.exe</arg><arg>--port</arg><arg>15903</arg><arg>--loglevel</arg><arg>INFO</arg><arg>--name</arg><arg>Apama Designer Correlator for task1(task1:defaultCorrelator)</arg><arg>-j</arg><arg>--jmsConfig</arg><arg>C:\Users\istmapara\workspace910\.metadata\.plugins\org.eclipse.core.resources\.projects\task1\com.apama.text\JMS_Correlator-Integrated_Adapter</arg><arg>--distMemStoreConfig</arg><arg>C:\Users\istmapara\workspace910\task1\bundle_instance_files\Distributed_MemoryStore\config</arg><arg>--inputLog</arg><arg>logs/defaultCorrelator_${START_TIME}_${ID}.input.log</arg></args><environment><variable>ALLUSERSPROFILE=C:\ProgramData</variable><variable>APAMA_HOME=C:\SoftwareAG\Apama</variable><variable>APAMA_WORK=C:\Users\Public\SoftwareAG\ApamaWork_9.10</variable><variable>APPDATA=C:\Users\istmapara\AppData\Roaming</variable><variable>COMMONPROGRAMFILES=C:\Program Files\Common Files</variable><variable>COMMONPROGRAMFILES(X86)=C:\Program Files (x86)\Common Files</variable><variable>COMMONPROGRAMW6432=C:\Program Files\Common Files</variable><variable>COMPUTERNAME=WIDB-2014-6</variable><variable>COMSPEC=C:\Windows\system32\cmd.exe</variable><variable>FP_NO_HOST_CHECK=NO</variable><variable>HDGUARD=C:\Program Files (x86)\RDT Global\HDGUARD\</variable><variable>HOMEDRIVE=Z:</variable><variable>HOMEPATH=\</variable><variable>HOMESHARE=\\userv-fs\istmapara</variable><variable>LOCALAPPDATA=C:\Users\istmapara\AppData\Local</variable><variable>LOGONSERVER=\\SAMBABDC</variable><variable>NUMBER_OF_PROCESSORS=8</variable><variable>OS=Windows_NT</variable><variable>PATH=C:\SoftwareAG\Apama\..\jvm\jvm\jre\bin\server;C:\SoftwareAG\Apama\..\jvm\jvm\jre\bin;C:\SoftwareAG\Apama\..\jvm\jvm\jre\bin\server;C:\SoftwareAG\Apama\..\jvm\jvm\jre\bin;C:\Users\Public\SoftwareAG\ApamaWork_9.10\lib;C:\SoftwareAG\Apama\bin;C:\oraclexe\app\oracle\product\11.2.0\server\bin;C:\ProgramData\Oracle\Java\javapath;C:\Program Files (x86)\Intel\iCLS Client\;C:\Program Files\Intel\iCLS Client\;C:\Windows\system32;C:\Windows;C:\Windows\System32\Wbem;C:\Windows\System32\WindowsPowerShell\v1.0\;C:\Program Files\Intel\Intel(R) Management Engine Components\DAL;C:\Program Files\Intel\Intel(R) Management Engine Components\IPT;C:\Program Files (x86)\Intel\Intel(R) Management Engine Components\DAL;C:\Program Files (x86)\Intel\Intel(R) Management Engine Components\IPT;C:\Program Files (x86)\Windows Kits\8.1\Windows Performance Toolkit\;C:\Program Files\Microsoft SQL Server\110\Tools\Binn\;C:\Program Files (x86)\Microsoft SQL Server\100\Tools\Binn\;C:\Program Files\Microsoft SQL Server\100\Tools\Binn\;C:\Program Files\Microsoft SQL Server\100\DTS\Binn\;C:\Program Files (x86)\Microsoft SQL Server\100\Tools\Binn\VSShell\Common7\IDE\;C:\Program Files (x86)\Microsoft SQL Server\100\DTS\Binn\;C:\Program Files\Java\jdk1.6.0_21\bin;C:\Program Files\Git\cmd;C:\Program Files\TortoiseGit\bin</variable><variable>PATHEXT=.COM;.EXE;.BAT;.CMD;.VBS;.VBE;.JS;.JSE;.WSF;.WSH;.MSC</variable><variable>PENTAHO_JAVA_HOME=C:\PENTAHO\jdk1.6.0_21</variable><variable>PROCESSOR_ARCHITECTURE=AMD64</variable><variable>PROCESSOR_IDENTIFIER=Intel64 Family 6 Model 60 Stepping 3, GenuineIntel</variable><variable>PROCESSOR_LEVEL=6</variable><variable>PROCESSOR_REVISION=3c03</variable><variable>PROGRAMDATA=C:\ProgramData</variable><variable>PROGRAMFILES=C:\Program Files</variable><variable>PROGRAMFILES(X86)=C:\Program Files (x86)</variable><variable>PROGRAMW6432=C:\Program Files</variable><variable>PROMPT=$P$G</variable><variable>PSMODULEPATH=C:\Windows\system32\WindowsPowerShell\v1.0\Modules\</variable><variable>PUBLIC=C:\Users\Public</variable><variable>SESSIONNAME=Console</variable><variable>SYSTEMDRIVE=C:</variable><variable>SYSTEMROOT=C:\Windows</variable><variable>TEMP=C:\Users\ISTMAP~2\AppData\Local\Temp</variable><variable>TMP=C:\Users\ISTMAP~2\AppData\Local\Temp</variable><variable>USERDOMAIN=FBI-USERV</variable><variable>USERNAME=istmapara</variable><variable>USERPROFILE=C:\Users\istmapara</variable><variable>VBOX_MSI_INSTALL_PATH=C:\Program Files\Oracle\VirtualBox\</variable><variable>VS120COMNTOOLS=C:\Program Files (x86)\Microsoft Visual Studio 12.0\Common7\Tools\</variable><variable>WINDIR=C:\Windows</variable><variable>WINDOWS_TRACING_FLAGS=3</variable><variable>WINDOWS_TRACING_LOGFILE=C:\BVTBin\Tests\installpackage\csilogfile.log</variable></environment><version>9.10.0.0.275046</version></header>
